REMARK  5 active torsions:
REMARK  status: ('A' for Active; 'I' for Inactive)
REMARK    1  A    between atoms: O_1  and  C_6 
REMARK    2  A    between atoms: O_2  and  C_7 
REMARK    3  A    between atoms: O_3  and  C_9 
REMARK    4  A    between atoms: O_4  and  C_12 
REMARK    5  A    between atoms: C_8  and  C_12 
ROOT
HETATM    1  C   UNK N   1       0.653   1.329  -0.000  0.00  0.00     0.105 A 
HETATM    2  C   UNK N   1       1.018  -1.088  -0.000  0.00  0.00     0.105 A 
HETATM    3  C   UNK N   1      -1.256  -0.194  -0.000  0.00  0.00     0.043 A 
HETATM    4  C   UNK N   1       1.531   0.222  -0.000  0.00  0.00     0.133 A 
HETATM    5  C   UNK N   1      -0.738   1.103  -0.000  0.00  0.00     0.058 A 
HETATM    6  C   UNK N   1      -0.378  -1.286  -0.000  0.00  0.00     0.058 A 
ENDROOT
BRANCH   3   7
HETATM    7  C   UNK N   1      -2.724  -0.404   0.000  0.00  0.00     0.176 C 
HETATM    8  O   UNK N   1      -3.188  -1.534  -0.000  0.00  0.00    -0.646 OA
BRANCH   7   9
HETATM    9  O   UNK N   1      -3.557   0.660   0.002  0.00  0.00    -0.773 OA
HETATM   10  H   UNK N   1      -4.517   0.547   0.002  0.00  0.00     0.167 HD
ENDBRANCH   7   9
ENDBRANCH   3   7
BRANCH   1  11
HETATM   11  O   UNK N   1       1.161   2.592  -0.000  0.00  0.00    -0.353 OA
HETATM   12  C   UNK N   1       0.397   3.745  -0.000  0.00  0.00     0.210 C 
ENDBRANCH   1  11
BRANCH   2  13
HETATM   13  O   UNK N   1       1.884  -2.139   0.000  0.00  0.00    -0.353 OA
HETATM   14  C   UNK N   1       1.506  -3.469   0.000  0.00  0.00     0.210 C 
ENDBRANCH   2  13
BRANCH   4  15
HETATM   15  O   UNK N   1       2.871   0.405   0.000  0.00  0.00    -0.356 OA
HETATM   16  H   UNK N   1       3.276   1.284   0.000  0.00  0.00     0.218 HD
ENDBRANCH   4  15
TORSDOF 5
