REMARK  3 active torsions:
REMARK  status: ('A' for Active; 'I' for Inactive)
REMARK    1  A    between atoms: O_1  and  C_10 
REMARK    2  A    between atoms: N_3  and  N_4 
REMARK       I    between atoms: N_3  and  C_11 
REMARK    3  A    between atoms: C_5  and  C_11 
ROOT
HETATM    1  C   UNK N   1      -0.286   0.109   0.001  0.00  0.00     0.033 A 
HETATM    2  C   UNK N   1       0.519   1.257  -0.145  0.00  0.00     0.020 A 
HETATM    3  C   UNK N   1       0.348  -1.144   0.157  0.00  0.00     0.020 A 
HETATM    4  C   UNK N   1       1.913   1.153  -0.161  0.00  0.00     0.037 A 
HETATM    5  C   UNK N   1       1.743  -1.239   0.152  0.00  0.00     0.037 A 
HETATM    6  C   UNK N   1       2.528  -0.097  -0.016  0.00  0.00     0.065 A 
ENDROOT
BRANCH   1   7
HETATM    7  C   UNK N   1      -1.776   0.249  -0.022  0.00  0.00     0.265 C 
HETATM    8  O   UNK N   1      -2.269   1.367   0.071  0.00  0.00    -0.266 OA
HETATM    9  N   UNK N   1      -2.599  -0.824  -0.183  0.00  0.00    -0.290 N 
HETATM   10  H   UNK N   1      -2.217  -1.770  -0.317  0.00  0.00     0.183 HD
BRANCH   9  11
HETATM   11  N   UNK N   1      -3.975  -0.653  -0.229  0.00  0.00    -0.247 NA
HETATM   12  H   UNK N   1      -4.307  -0.971  -1.168  0.00  0.00     0.143 HD
HETATM   13  H   UNK N   1      -4.397  -1.269   0.503  0.00  0.00     0.143 HD
ENDBRANCH   9  11
ENDBRANCH   1   7
BRANCH   6  14
HETATM   14  O   UNK N   1       3.872  -0.210  -0.038  0.00  0.00    -0.361 OA
HETATM   15  H   UNK N   1       4.445   0.558  -0.172  0.00  0.00     0.217 HD
ENDBRANCH   6  14
TORSDOF 3
