REMARK  11 active torsions:
REMARK  status: ('A' for Active; 'I' for Inactive)
REMARK    1  A    between atoms: O_1  and  C_11 
REMARK    2  A    between atoms: O_1  and  C_17 
REMARK    3  A    between atoms: C_10  and  O_2 
REMARK    4  A    between atoms: O_3  and  C_14 
REMARK    5  A    between atoms: O_4  and  C_15 
REMARK    6  A    between atoms: O_5  and  C_16 
REMARK    7  A    between atoms: O_8  and  C_23 
REMARK    8  A    between atoms: O_9  and  C_25 
REMARK    9  A    between atoms: C_10  and  C_16 
REMARK   10  A    between atoms: C_17  and  C_18 
REMARK   11  A    between atoms: C_19  and  C_20 
ROOT
HETATM    1  C   UNK N   1      -3.896  -1.088  -0.050  0.00  0.00     0.147 C 
HETATM    2  C   UNK N   1      -2.407   0.967   0.337  0.00  0.00     0.166 C 
HETATM    3  C   UNK N   1      -2.454  -0.529  -0.061  0.00  0.00     0.084 C 
HETATM    4  C   UNK N   1      -4.762  -0.248  -1.017  0.00  0.00     0.083 C 
HETATM    5  C   UNK N   1      -3.301   1.783  -0.626  0.00  0.00     0.176 C 
HETATM    6  C   UNK N   1      -4.750   1.250  -0.641  0.00  0.00     0.152 C 
ENDROOT
BRANCH   2   7
HETATM    7  O   UNK N   1      -1.103   1.428   0.239  0.00  0.00    -0.310 OA
BRANCH   7   8
HETATM    8  C   UNK N   1      -0.070   0.941   0.977  0.00  0.00     0.283 C 
HETATM    9  O   UNK N   1      -0.279   0.340   2.021  0.00  0.00    -0.260 OA
BRANCH   8  10
HETATM   10  C   UNK N   1       1.292   1.025   0.412  0.00  0.00     0.083 C 
HETATM   11  C   UNK N   1       2.324   0.350   0.956  0.00  0.00     0.017 C 
BRANCH  11  12
HETATM   12  C   UNK N   1       3.686   0.277   0.350  0.00  0.00    -0.033 A 
HETATM   13  C   UNK N   1       4.615  -0.606   0.921  0.00  0.00     0.050 A 
HETATM   14  C   UNK N   1       5.891  -0.773   0.371  0.00  0.00     0.099 A 
HETATM   15  C   UNK N   1       6.260  -0.023  -0.774  0.00  0.00     0.098 A 
HETATM   16  C   UNK N   1       5.338   0.864  -1.338  0.00  0.00     0.040 A 
HETATM   17  C   UNK N   1       4.062   1.014  -0.791  0.00  0.00     0.014 A 
BRANCH  14  18
HETATM   18  O   UNK N   1       6.725  -1.664   0.953  0.00  0.00    -0.358 OA
HETATM   19  H   UNK N   1       7.604  -1.881   0.621  0.00  0.00     0.218 HD
ENDBRANCH  14  18
BRANCH  15  20
HETATM   20  O   UNK N   1       7.477  -0.131  -1.351  0.00  0.00    -0.358 OA
HETATM   21  H   UNK N   1       8.182  -0.705  -1.027  0.00  0.00     0.218 HD
ENDBRANCH  15  20
ENDBRANCH  11  12
ENDBRANCH   8  10
ENDBRANCH   7   8
ENDBRANCH   2   7
BRANCH   5  22
HETATM   22  O   UNK N   1      -3.308   3.137  -0.251  0.00  0.00    -0.390 OA
HETATM   23  H   UNK N   1      -2.514   3.559  -0.671  0.00  0.00     0.210 HD
ENDBRANCH   5  22
BRANCH   1  24
HETATM   24  O   UNK N   1      -4.447  -1.002   1.246  0.00  0.00    -0.379 OA
HETATM   25  H   UNK N   1      -3.829  -1.457   1.876  0.00  0.00     0.211 HD
ENDBRANCH   1  24
BRANCH   1  26
HETATM   26  C   UNK N   1      -3.885  -2.534  -0.512  0.00  0.00     0.176 C 
HETATM   27  O   UNK N   1      -4.323  -3.418   0.211  0.00  0.00    -0.648 OA
BRANCH  26  28
HETATM   28  O   UNK N   1      -3.376  -2.850  -1.723  0.00  0.00    -0.774 OA
HETATM   29  H   UNK N   1      -3.338  -3.768  -2.026  0.00  0.00     0.167 HD
ENDBRANCH  26  28
ENDBRANCH   1  26
BRANCH   6  30
HETATM   30  O   UNK N   1      -5.346   1.450   0.616  0.00  0.00    -0.393 OA
HETATM   31  H   UNK N   1      -6.325   1.340   0.486  0.00  0.00     0.210 HD
ENDBRANCH   6  30
TORSDOF 11
