REMARK  3 active torsions:
REMARK  status: ('A' for Active; 'I' for Inactive)
REMARK    1  A    between atoms: O_1  and  C_12 
REMARK    2  A    between atoms: N_3  and  C_6 
REMARK    3  A    between atoms: C_7  and  C_12 
ROOT
HETATM    1  C   UNK N   1       1.394   0.685  -0.024  0.00  0.00    -0.029 A 
HETATM    2  C   UNK N   1       1.923  -0.630   0.038  0.00  0.00    -0.054 A 
HETATM    3  C   UNK N   1      -0.022   0.884  -0.038  0.00  0.00     0.049 A 
HETATM    4  C   UNK N   1      -0.892  -0.259   0.002  0.00  0.00     0.064 A 
HETATM    5  C   UNK N   1       1.055  -1.722   0.078  0.00  0.00     0.008 A 
HETATM    6  C   UNK N   1      -0.320  -1.541   0.053  0.00  0.00     0.021 A 
HETATM    7  C   UNK N   1       2.322   1.884  -0.095  0.00  0.00     0.051 C 
HETATM    8  C   UNK N   1       3.409  -0.895   0.051  0.00  0.00     0.049 C 
ENDROOT
BRANCH   4   9
HETATM    9  C   UNK N   1      -2.392  -0.190  -0.010  0.00  0.00     0.178 C 
HETATM   10  O   UNK N   1      -2.991   0.845   0.217  0.00  0.00    -0.646 OA
BRANCH   9  11
HETATM   11  O   UNK N   1      -3.107  -1.310  -0.265  0.00  0.00    -0.773 OA
HETATM   12  H   UNK N   1      -4.073  -1.284  -0.322  0.00  0.00     0.167 HD
ENDBRANCH   9  11
ENDBRANCH   4   9
BRANCH   3  13
HETATM   13  N   UNK N   1      -0.537   2.217  -0.128  0.00  0.00    -0.398 N 
HETATM   14  H   UNK N   1       0.088   3.033  -0.145  0.00  0.00     0.156 HD
HETATM   15  H   UNK N   1      -1.530   2.429  -0.235  0.00  0.00     0.156 HD
ENDBRANCH   3  13
TORSDOF 3
