REMARK  14 active torsions:
REMARK  status: ('A' for Active; 'I' for Inactive)
REMARK    1  A    between atoms: O_1  and  C_15 
REMARK    2  A    between atoms: O_1  and  C_18 
REMARK    3  A    between atoms: O_4  and  C_19 
REMARK    4  A    between atoms: O_4  and  C_27 
REMARK    5  A    between atoms: O_5  and  C_16 
REMARK    6  A    between atoms: O_6  and  C_17 
REMARK    7  A    between atoms: O_7  and  C_20 
REMARK    8  A    between atoms: O_8  and  C_22 
REMARK    9  A    between atoms: O_9  and  C_23 
REMARK   10  A    between atoms: O_10  and  C_25 
REMARK   11  A    between atoms: O_12  and  C_33 
REMARK   12  A    between atoms: O_14  and  C_41 
REMARK   13  A    between atoms: C_21  and  C_25 
REMARK   14  A    between atoms: C_32  and  C_36 
ROOT
HETATM    1  O   UNK N   1       1.363   2.589   0.124  0.00  0.00    -0.348 OA
HETATM    2  C   UNK N   1       3.250   1.093   0.489  0.00  0.00     0.211 C 
HETATM    3  C   UNK N   1       3.638   1.916   1.745  0.00  0.00     0.183 C 
HETATM    4  C   UNK N   1       3.091   3.356   1.618  0.00  0.00     0.180 C 
HETATM    5  C   UNK N   1       1.729   1.226   0.262  0.00  0.00     0.298 C 
HETATM    6  C   UNK N   1       1.577   3.305   1.322  0.00  0.00     0.179 C 
ENDROOT
BRANCH   5   7
HETATM    7  O   UNK N   1       1.376   0.586  -0.912  0.00  0.00    -0.318 OA
BRANCH   7   8
HETATM    8  C   UNK N   1       0.089   0.548  -1.336  0.00  0.00     0.077 A 
HETATM    9  C   UNK N   1      -0.930   0.044  -0.509  0.00  0.00     0.074 A 
HETATM   10  C   UNK N   1      -2.257   0.070  -0.942  0.00  0.00     0.089 A 
HETATM   11  O   UNK N   1      -3.239  -0.384  -0.116  0.00  0.00    -0.340 OA
HETATM   12  C   UNK N   1      -2.584   0.584  -2.210  0.00  0.00     0.076 A 
HETATM   13  C   UNK N   1      -4.547   0.052  -0.255  0.00  0.00     0.169 C 
HETATM   14  C   UNK N   1      -5.012  -0.111  -1.712  0.00  0.00     0.121 C 
HETATM   15  C   UNK N   1      -4.017   0.568  -2.617  0.00  0.00     0.167 C 
HETATM   16  O   UNK N   1      -4.384   1.040  -3.679  0.00  0.00    -0.292 OA
HETATM   17  C   UNK N   1      -1.561   1.089  -3.045  0.00  0.00     0.085 A 
HETATM   18  C   UNK N   1      -0.230   1.057  -2.598  0.00  0.00     0.074 A 
BRANCH  13  19
HETATM   19  C   UNK N   1      -5.447  -0.670   0.720  0.00  0.00    -0.028 A 
HETATM   20  C   UNK N   1      -6.116   0.051   1.723  0.00  0.00     0.012 A 
HETATM   21  C   UNK N   1      -6.956  -0.606   2.626  0.00  0.00     0.037 A 
HETATM   22  C   UNK N   1      -7.141  -1.989   2.536  0.00  0.00     0.065 A 
HETATM   23  C   UNK N   1      -6.473  -2.717   1.540  0.00  0.00     0.037 A 
HETATM   24  C   UNK N   1      -5.626  -2.063   0.639  0.00  0.00     0.012 A 
BRANCH  22  25
HETATM   25  O   UNK N   1      -7.962  -2.609   3.408  0.00  0.00    -0.361 OA
HETATM   26  H   UNK N   1      -8.119  -3.563   3.369  0.00  0.00     0.217 HD
ENDBRANCH  22  25
ENDBRANCH  13  19
BRANCH  17  27
HETATM   27  O   UNK N   1      -1.855   1.606  -4.254  0.00  0.00    -0.360 OA
HETATM   28  H   UNK N   1      -1.173   1.982  -4.829  0.00  0.00     0.217 HD
ENDBRANCH  17  27
ENDBRANCH   7   8
ENDBRANCH   5   7
BRANCH   2  29
HETATM   29  O   UNK N   1       3.546  -0.284   0.679  0.00  0.00    -0.346 OA
BRANCH  29  30
HETATM   30  C   UNK N   1       4.848  -0.633   0.233  0.00  0.00     0.292 C 
HETATM   31  O   UNK N   1       4.844  -0.990  -1.142  0.00  0.00    -0.351 OA
HETATM   32  C   UNK N   1       4.046  -2.139  -1.398  0.00  0.00     0.152 C 
HETATM   33  C   UNK N   1       4.572  -3.380  -0.629  0.00  0.00     0.178 C 
HETATM   34  C   UNK N   1       4.079  -2.392  -2.907  0.00  0.00     0.042 C 
HETATM   35  C   UNK N   1       4.611  -3.064   0.877  0.00  0.00     0.183 C 
HETATM   36  C   UNK N   1       5.420  -1.776   1.106  0.00  0.00     0.204 C 
BRANCH  33  37
HETATM   37  O   UNK N   1       3.730  -4.486  -0.844  0.00  0.00    -0.390 OA
HETATM   38  H   UNK N   1       4.058  -4.954  -1.656  0.00  0.00     0.210 HD
ENDBRANCH  33  37
BRANCH  35  39
HETATM   39  O   UNK N   1       5.195  -4.115   1.605  0.00  0.00    -0.390 OA
HETATM   40  H   UNK N   1       4.591  -4.899   1.528  0.00  0.00     0.210 HD
ENDBRANCH  35  39
BRANCH  36  41
HETATM   41  O   UNK N   1       6.790  -1.988   0.848  0.00  0.00    -0.388 OA
HETATM   42  H   UNK N   1       6.945  -1.964  -0.130  0.00  0.00     0.210 HD
ENDBRANCH  36  41
ENDBRANCH  29  30
ENDBRANCH   2  29
BRANCH   6  43
HETATM   43  C   UNK N   1       0.996   4.716   1.145  0.00  0.00     0.198 C 
BRANCH  43  44
HETATM   44  O   UNK N   1      -0.388   4.655   0.926  0.00  0.00    -0.398 OA
HETATM   45  H   UNK N   1      -0.520   4.327  -0.002  0.00  0.00     0.209 HD
ENDBRANCH  43  44
ENDBRANCH   6  43
BRANCH   3  46
HETATM   46  O   UNK N   1       5.034   1.944   1.895  0.00  0.00    -0.390 OA
HETATM   47  H   UNK N   1       5.232   2.386   2.760  0.00  0.00     0.210 HD
ENDBRANCH   3  46
BRANCH   4  48
HETATM   48  O   UNK N   1       3.358   4.099   2.782  0.00  0.00    -0.390 OA
HETATM   49  H   UNK N   1       2.892   3.652   3.537  0.00  0.00     0.210 HD
ENDBRANCH   4  48
TORSDOF 14
