REMARK  4 active torsions:
REMARK  status: ('A' for Active; 'I' for Inactive)
REMARK    1  A    between atoms: O_2  and  C_28 
REMARK    2  A    between atoms: N_4  and  C_14 
REMARK       I    between atoms: N_5  and  C_23 
REMARK    3  A    between atoms: N_7  and  C_30 
REMARK       I    between atoms: N_7  and  C_31 
REMARK    4  A    between atoms: C_23  and  C_25 
ROOT
HETATM    1  C   UNK N   1      -1.824  -2.850  -0.972  0.00  0.00     0.035 A 
HETATM    2  C   UNK N   1      -1.541  -3.835  -0.019  0.00  0.00     0.056 A 
HETATM    3  C   UNK N   1      -0.794  -2.046  -1.461  0.00  0.00     0.019 A 
HETATM    4  C   UNK N   1      -0.239  -3.996   0.472  0.00  0.00     0.096 A 
HETATM    5  C   UNK N   1       0.501  -2.177  -0.958  0.00  0.00     0.034 A 
HETATM    6  C   UNK N   1       0.797  -3.131   0.040  0.00  0.00     0.082 A 
ENDROOT
BRANCH   6   7
HETATM    7  N   UNK N   1       2.108  -3.267   0.610  0.00  0.00    -0.189 N 
HETATM    8  C   UNK N   1       3.129  -2.263   0.646  0.00  0.00     0.684 A 
HETATM    9  N   UNK N   1       2.936  -1.020   0.168  0.00  0.00    -0.174 N 
HETATM   10  N   UNK N   1       4.295  -2.550   1.221  0.00  0.00    -0.199 N 
HETATM   11  C   UNK N   1       3.861   0.001   0.154  0.00  0.00     0.152 A 
ATOM     12  HN  UNK N   1       2.017  -0.813  -0.221  1.00  0.00     0.186 HD
HETATM   13  N   UNK N   1       3.437   1.188  -0.443  0.00  0.00    -0.334 N 
HETATM   14  C   UNK N   1       5.151  -0.303   0.733  0.00  0.00     0.098 A 
HETATM   15  C   UNK N   1       4.155   2.343  -0.769  0.00  0.00     0.051 A 
HETATM   16  C   UNK N   1       1.976   1.225  -0.794  0.00  0.00     0.158 C 
HETATM   17  C   UNK N   1       5.528   2.615  -0.438  0.00  0.00     0.059 A 
HETATM   18  C   UNK N   1       3.469   3.378  -1.524  0.00  0.00     0.031 A 
HETATM   19  C   UNK N   1       6.441   1.817   0.307  0.00  0.00     0.260 A 
HETATM   20  C   UNK N   1       6.080   3.873  -0.892  0.00  0.00     0.019 A 
HETATM   21  O   UNK N   1       7.539   2.328   0.495  0.00  0.00    -0.267 OA
HETATM   22  N   UNK N   1       6.257   0.541   0.828  0.00  0.00    -0.314 N 
HETATM   23  C   UNK N   1       7.446   0.005   1.578  0.00  0.00     0.160 C 
HETATM   24  C   UNK N   1       5.367   4.800  -1.617  0.00  0.00     0.001 A 
HETATM   25  C   UNK N   1       4.066   4.554  -1.930  0.00  0.00     0.002 A 
HETATM   26  C   UNK N   1       5.279  -1.636   1.285  0.00  0.00     0.139 A 
ATOM     27  HN  UNK N   1       4.445  -3.478   1.617  1.00  0.00     0.183 HD
HETATM   28  H   UNK N   1       2.313  -4.132   1.132  0.00  0.00     0.184 HD
ENDBRANCH   6   7
BRANCH   4  29
HETATM   29  O   UNK N   1       0.007  -4.991   1.354  0.00  0.00    -0.354 OA
HETATM   30  C   UNK N   1       0.031  -4.797   2.716  0.00  0.00     0.210 C 
ENDBRANCH   4  29
BRANCH   1  31
HETATM   31  C   UNK N   1      -3.204  -2.665  -1.466  0.00  0.00     0.253 C 
HETATM   32  O   UNK N   1      -3.435  -2.921  -2.639  0.00  0.00    -0.267 OA
HETATM   33  N   UNK N   1      -4.200  -2.161  -0.658  0.00  0.00    -0.348 N 
HETATM   34  C   UNK N   1      -3.940  -1.662   0.687  0.00  0.00     0.128 C 
HETATM   35  C   UNK N   1      -5.564  -2.010  -1.142  0.00  0.00     0.128 C 
HETATM   36  C   UNK N   1      -4.278  -0.162   0.726  0.00  0.00     0.055 C 
HETATM   37  C   UNK N   1      -5.747   0.115   0.280  0.00  0.00     0.226 C 
HETATM   38  C   UNK N   1      -5.941  -0.525  -1.128  0.00  0.00     0.055 C 
BRANCH  37  39
HETATM   39  N   UNK N   1      -6.069   1.582   0.244  0.00  0.00     0.096 N 
HETATM   40  C   UNK N   1      -5.719   2.282   1.507  0.00  0.00     0.303 C 
HETATM   41  C   UNK N   1      -6.057   3.776   1.427  0.00  0.00     0.302 C 
HETATM   42  N   UNK N   1      -7.492   3.953   1.159  0.00  0.00     0.087 N 
HETATM   43  C   UNK N   1      -7.831   3.308  -0.117  0.00  0.00     0.302 C 
HETATM   44  C   UNK N   1      -7.838   5.382   1.118  0.00  0.00     0.310 C 
HETATM   45  C   UNK N   1      -7.509   1.812  -0.045  0.00  0.00     0.303 C 
ENDBRANCH  37  39
ENDBRANCH   1  31
TORSDOF 4
