REMARK  16 active torsions:
REMARK  status: ('A' for Active; 'I' for Inactive)
REMARK    1  A    between atoms: O_2  and  C_22 
REMARK    2  A    between atoms: O_2  and  C_26 
REMARK    3  A    between atoms: O_4  and  C_18 
REMARK    4  A    between atoms: O_5  and  C_19 
REMARK    5  A    between atoms: O_6  and  C_25 
REMARK    6  A    between atoms: O_6  and  C_29 
REMARK    7  A    between atoms: O_7  and  C_20 
REMARK    8  A    between atoms: O_8  and  C_21 
REMARK    9  A    between atoms: O_9  and  C_23 
REMARK   10  A    between atoms: O_10  and  C_24 
REMARK   11  A    between atoms: O_13  and  C_35 
REMARK   12  A    between atoms: O_14  and  C_40 
REMARK   13  A    between atoms: O_15  and  C_41 
REMARK   14  A    between atoms: O_16  and  C_43 
REMARK   15  A    between atoms: C_17  and  C_26 
REMARK   16  A    between atoms: C_30  and  C_33 
ROOT
HETATM    1  O   UNK N   1       0.965   0.200   1.784  0.00  0.00    -0.348 OA
HETATM    2  C   UNK N   1       1.349   1.133   2.767  0.00  0.00     0.180 C 
HETATM    3  C   UNK N   1       2.885   1.325   2.741  0.00  0.00     0.180 C 
HETATM    4  C   UNK N   1       3.565  -0.035   3.001  0.00  0.00     0.183 C 
HETATM    5  C   UNK N   1       3.040  -1.050   1.972  0.00  0.00     0.205 C 
HETATM    6  C   UNK N   1       1.497  -1.090   2.009  0.00  0.00     0.298 C 
ENDROOT
BRANCH   6   7
HETATM    7  O   UNK N   1       1.061  -1.880   0.965  0.00  0.00    -0.311 OA
BRANCH   7   8
HETATM    8  C   UNK N   1      -0.224  -1.911   0.506  0.00  0.00     0.157 A 
HETATM    9  C   UNK N   1      -0.437  -2.051  -0.875  0.00  0.00     0.124 A 
HETATM   10  O   UNK N   1      -1.671  -2.056  -1.370  0.00  0.00    -0.306 OA
HETATM   11  C   UNK N   1      -2.751  -1.893  -0.613  0.00  0.00     0.096 A 
HETATM   12  C   UNK N   1      -2.636  -1.762   0.790  0.00  0.00     0.084 A 
HETATM   13  C   UNK N   1      -4.007  -1.816  -1.224  0.00  0.00     0.075 A 
HETATM   14  C   UNK N   1      -1.345  -1.789   1.356  0.00  0.00     0.223 A 
HETATM   15  C   UNK N   1      -3.807  -1.587   1.570  0.00  0.00     0.085 A 
HETATM   16  O   UNK N   1      -1.197  -1.688   2.560  0.00  0.00    -0.284 OA
HETATM   17  C   UNK N   1      -5.056  -1.510   0.936  0.00  0.00     0.074 A 
HETATM   18  C   UNK N   1      -5.156  -1.613  -0.456  0.00  0.00     0.071 A 
BRANCH   9  19
HETATM   19  C   UNK N   1       0.702  -2.071  -1.817  0.00  0.00     0.004 A 
HETATM   20  C   UNK N   1       1.681  -1.065  -1.749  0.00  0.00     0.053 A 
HETATM   21  C   UNK N   1       2.740  -1.031  -2.661  0.00  0.00     0.099 A 
HETATM   22  C   UNK N   1       2.845  -2.049  -3.643  0.00  0.00     0.098 A 
HETATM   23  C   UNK N   1       1.870  -3.055  -3.697  0.00  0.00     0.040 A 
HETATM   24  C   UNK N   1       0.794  -3.055  -2.805  0.00  0.00     0.017 A 
BRANCH  21  25
HETATM   25  O   UNK N   1       3.622  -0.010  -2.576  0.00  0.00    -0.358 OA
HETATM   26  H   UNK N   1       4.353   0.130  -3.190  0.00  0.00     0.218 HD
ENDBRANCH  21  25
BRANCH  22  27
HETATM   27  O   UNK N   1       3.854  -2.086  -4.542  0.00  0.00    -0.358 OA
HETATM   28  H   UNK N   1       4.570  -1.440  -4.578  0.00  0.00     0.218 HD
ENDBRANCH  22  27
ENDBRANCH   9  19
BRANCH  15  29
HETATM   29  O   UNK N   1      -3.734  -1.477   2.914  0.00  0.00    -0.360 OA
HETATM   30  H   UNK N   1      -4.523  -1.365   3.464  0.00  0.00     0.217 HD
ENDBRANCH  15  29
BRANCH  18  31
HETATM   31  O   UNK N   1      -6.353  -1.511  -1.068  0.00  0.00    -0.361 OA
HETATM   32  H   UNK N   1      -7.166  -1.343  -0.569  0.00  0.00     0.217 HD
ENDBRANCH  18  31
ENDBRANCH   7   8
ENDBRANCH   6   7
BRANCH   5  33
HETATM   33  O   UNK N   1       3.591  -2.326   2.183  0.00  0.00    -0.388 OA
HETATM   34  H   UNK N   1       3.310  -2.630   3.086  0.00  0.00     0.210 HD
ENDBRANCH   5  33
BRANCH   2  35
HETATM   35  C   UNK N   1       0.595   2.426   2.441  0.00  0.00     0.205 C 
BRANCH  35  36
HETATM   36  O   UNK N   1       0.842   2.763   1.089  0.00  0.00    -0.356 OA
BRANCH  36  37
HETATM   37  C   UNK N   1       0.046   3.862   0.683  0.00  0.00     0.291 C 
HETATM   38  O   UNK N   1      -1.349   3.562   0.717  0.00  0.00    -0.351 OA
HETATM   39  C   UNK N   1      -1.695   2.494  -0.160  0.00  0.00     0.152 C 
HETATM   40  C   UNK N   1      -1.393   2.865  -1.633  0.00  0.00     0.178 C 
HETATM   41  C   UNK N   1      -3.184   2.191   0.025  0.00  0.00     0.042 C 
HETATM   42  C   UNK N   1       0.100   3.215  -1.753  0.00  0.00     0.183 C 
HETATM   43  C   UNK N   1       0.471   4.313  -0.735  0.00  0.00     0.204 C 
BRANCH  40  44
HETATM   44  O   UNK N   1      -1.685   1.786  -2.486  0.00  0.00    -0.390 OA
HETATM   45  H   UNK N   1      -2.598   1.936  -2.849  0.00  0.00     0.210 HD
ENDBRANCH  40  44
BRANCH  42  46
HETATM   46  O   UNK N   1       0.449   3.587  -3.064  0.00  0.00    -0.390 OA
HETATM   47  H   UNK N   1      -0.137   4.342  -3.333  0.00  0.00     0.210 HD
ENDBRANCH  42  46
BRANCH  43  48
HETATM   48  O   UNK N   1      -0.114   5.549  -1.079  0.00  0.00    -0.388 OA
HETATM   49  H   UNK N   1      -1.069   5.544  -0.814  0.00  0.00     0.210 HD
ENDBRANCH  43  48
ENDBRANCH  36  37
ENDBRANCH  35  36
ENDBRANCH   2  35
BRANCH   4  50
HETATM   50  O   UNK N   1       4.959   0.078   2.880  0.00  0.00    -0.390 OA
HETATM   51  H   UNK N   1       5.291   0.468   3.730  0.00  0.00     0.210 HD
ENDBRANCH   4  50
BRANCH   3  52
HETATM   52  O   UNK N   1       3.300   2.283   3.682  0.00  0.00    -0.390 OA
HETATM   53  H   UNK N   1       3.010   1.968   4.578  0.00  0.00     0.210 HD
ENDBRANCH   3  52
TORSDOF 16
