REMARK  5 active torsions:
REMARK  status: ('A' for Active; 'I' for Inactive)
REMARK    1  A    between atoms: O_2  and  C_11 
REMARK    2  A    between atoms: O_3  and  C_13 
REMARK    3  A    between atoms: O_5  and  C_15 
REMARK    4  A    between atoms: O_6  and  C_21 
REMARK    5  A    between atoms: C_9  and  C_12 
ROOT
HETATM    1  O   UNK N   1      -0.150  -0.862  -0.003  0.00  0.00    -0.306 OA
HETATM    2  O   UNK N   1      -1.649   2.811  -0.004  0.00  0.00    -0.284 OA
HETATM    3  C   UNK N   1      -2.084   0.546  -0.001  0.00  0.00     0.084 A 
HETATM    4  C   UNK N   1      -1.471  -0.738  -0.001  0.00  0.00     0.096 A 
HETATM    5  C   UNK N   1       0.674   0.177  -0.005  0.00  0.00     0.123 A 
HETATM    6  C   UNK N   1      -1.219   1.673  -0.004  0.00  0.00     0.223 A 
HETATM    7  C   UNK N   1       0.166   1.485  -0.006  0.00  0.00     0.152 A 
HETATM    8  C   UNK N   1      -3.516   0.615   0.001  0.00  0.00     0.085 A 
HETATM    9  C   UNK N   1      -2.248  -1.898  -0.000  0.00  0.00     0.075 A 
HETATM   10  C   UNK N   1      -3.636  -1.819   0.001  0.00  0.00     0.071 A 
HETATM   11  C   UNK N   1      -4.261  -0.570   0.001  0.00  0.00     0.074 A 
ENDROOT
BRANCH   5  12
HETATM   12  C   UNK N   1       2.114  -0.078   0.001  0.00  0.00     0.001 A 
HETATM   13  C   UNK N   1       2.797  -0.192   1.218  0.00  0.00     0.017 A 
HETATM   14  C   UNK N   1       4.169  -0.450   1.226  0.00  0.00     0.037 A 
HETATM   15  C   UNK N   1       4.865  -0.595   0.016  0.00  0.00     0.065 A 
HETATM   16  C   UNK N   1       4.181  -0.474  -1.199  0.00  0.00     0.037 A 
HETATM   17  C   UNK N   1       2.807  -0.217  -1.208  0.00  0.00     0.017 A 
BRANCH  15  18
HETATM   18  O   UNK N   1       6.188  -0.852   0.014  0.00  0.00    -0.361 OA
HETATM   19  H   UNK N   1       6.685  -0.952   0.839  0.00  0.00     0.217 HD
ENDBRANCH  15  18
ENDBRANCH   5  12
BRANCH   7  20
HETATM   20  O   UNK N   1       0.985   2.563  -0.008  0.00  0.00    -0.355 OA
HETATM   21  H   UNK N   1       1.950   2.491  -0.014  0.00  0.00     0.218 HD
ENDBRANCH   7  20
BRANCH   8  22
HETATM   22  O   UNK N   1      -4.218   1.773   0.003  0.00  0.00    -0.360 OA
HETATM   23  H   UNK N   1      -3.858   2.663   0.007  0.00  0.00     0.217 HD
ENDBRANCH   8  22
BRANCH  10  24
HETATM   24  O   UNK N   1      -4.368  -2.952   0.001  0.00  0.00    -0.361 OA
HETATM   25  H   UNK N   1      -5.336  -2.932   0.000  0.00  0.00     0.217 HD
ENDBRANCH  10  24
TORSDOF 5
