REMARK  6 active torsions:
REMARK  status: ('A' for Active; 'I' for Inactive)
REMARK    1  A    between atoms: O_2  and  C_12 
REMARK    2  A    between atoms: O_3  and  C_14 
REMARK    3  A    between atoms: O_5  and  C_16 
REMARK    4  A    between atoms: O_6  and  C_20 
REMARK    5  A    between atoms: O_7  and  C_22 
REMARK    6  A    between atoms: C_10  and  C_11 
ROOT
HETATM    1  O   UNK N   1      -0.366  -0.831  -0.127  0.00  0.00    -0.306 OA
HETATM    2  O   UNK N   1      -1.917   2.814   0.083  0.00  0.00    -0.284 OA
HETATM    3  C   UNK N   1      -2.319   0.544   0.022  0.00  0.00     0.084 A 
HETATM    4  C   UNK N   1      -1.688  -0.729  -0.055  0.00  0.00     0.096 A 
HETATM    5  C   UNK N   1       0.444   0.219  -0.129  0.00  0.00     0.123 A 
HETATM    6  C   UNK N   1      -0.084   1.518  -0.055  0.00  0.00     0.152 A 
HETATM    7  C   UNK N   1      -1.470   1.685   0.021  0.00  0.00     0.223 A 
HETATM    8  C   UNK N   1      -3.752   0.589   0.096  0.00  0.00     0.085 A 
HETATM    9  C   UNK N   1      -2.447  -1.901  -0.058  0.00  0.00     0.075 A 
HETATM   10  C   UNK N   1      -3.834  -1.846   0.013  0.00  0.00     0.071 A 
HETATM   11  C   UNK N   1      -4.478  -0.609   0.090  0.00  0.00     0.074 A 
ENDROOT
BRANCH   5  12
HETATM   12  C   UNK N   1       1.890  -0.016  -0.209  0.00  0.00     0.004 A 
HETATM   13  C   UNK N   1       2.644  -0.145   0.963  0.00  0.00     0.053 A 
HETATM   14  C   UNK N   1       4.021  -0.387   0.900  0.00  0.00     0.099 A 
HETATM   15  C   UNK N   1       4.649  -0.514  -0.368  0.00  0.00     0.098 A 
HETATM   16  C   UNK N   1       3.885  -0.369  -1.532  0.00  0.00     0.040 A 
HETATM   17  C   UNK N   1       2.513  -0.121  -1.455  0.00  0.00     0.017 A 
BRANCH  14  18
HETATM   18  O   UNK N   1       4.706  -0.487   2.061  0.00  0.00    -0.358 OA
HETATM   19  H   UNK N   1       5.663  -0.594   2.116  0.00  0.00     0.218 HD
ENDBRANCH  14  18
BRANCH  15  20
HETATM   20  O   UNK N   1       5.967  -0.783  -0.498  0.00  0.00    -0.358 OA
HETATM   21  H   UNK N   1       6.555  -0.972   0.243  0.00  0.00     0.218 HD
ENDBRANCH  15  20
ENDBRANCH   5  12
BRANCH   6  22
HETATM   22  O   UNK N   1       0.719   2.609  -0.057  0.00  0.00    -0.355 OA
HETATM   23  H   UNK N   1       1.683   2.552  -0.111  0.00  0.00     0.218 HD
ENDBRANCH   6  22
BRANCH   8  24
HETATM   24  O   UNK N   1      -4.470   1.734   0.174  0.00  0.00    -0.360 OA
HETATM   25  H   UNK N   1      -4.124   2.630   0.190  0.00  0.00     0.217 HD
ENDBRANCH   8  24
BRANCH  10  26
HETATM   26  O   UNK N   1      -4.546  -2.992   0.008  0.00  0.00    -0.361 OA
HETATM   27  H   UNK N   1      -5.513  -2.992   0.055  0.00  0.00     0.217 HD
ENDBRANCH  10  26
TORSDOF 6
