REMARK  5 active torsions:
REMARK  status: ('A' for Active; 'I' for Inactive)
REMARK    1  A    between atoms: O_2  and  C_13 
REMARK    2  A    between atoms: O_4  and  C_16 
REMARK    3  A    between atoms: O_5  and  C_19 
REMARK    4  A    between atoms: O_6  and  C_21 
REMARK    5  A    between atoms: C_9  and  C_10 
ROOT
HETATM    1  O   UNK N   1      -0.288   0.626  -0.067  0.00  0.00    -0.309 OA
HETATM    2  O   UNK N   1      -2.018  -2.923   0.287  0.00  0.00    -0.287 OA
HETATM    3  C   UNK N   1      -2.313  -0.645   0.075  0.00  0.00     0.081 A 
HETATM    4  C   UNK N   1      -1.619   0.589  -0.052  0.00  0.00     0.095 A 
HETATM    5  C   UNK N   1       0.469  -0.465  -0.006  0.00  0.00     0.090 A 
HETATM    6  C   UNK N   1      -1.523  -1.820   0.167  0.00  0.00     0.190 A 
HETATM    7  C   UNK N   1      -0.137  -1.721   0.111  0.00  0.00     0.094 A 
HETATM    8  C   UNK N   1      -3.747  -0.625   0.096  0.00  0.00     0.085 A 
HETATM    9  C   UNK N   1      -2.322   1.790  -0.176  0.00  0.00     0.075 A 
HETATM   10  C   UNK N   1      -3.714   1.798  -0.171  0.00  0.00     0.071 A 
HETATM   11  C   UNK N   1      -4.416   0.598  -0.030  0.00  0.00     0.074 A 
ENDROOT
BRANCH   5  12
HETATM   12  C   UNK N   1       1.945  -0.323  -0.066  0.00  0.00     0.001 A 
HETATM   13  C   UNK N   1       2.547   0.877   0.349  0.00  0.00     0.053 A 
HETATM   14  C   UNK N   1       3.938   1.027   0.310  0.00  0.00     0.099 A 
HETATM   15  C   UNK N   1       4.742  -0.019  -0.179  0.00  0.00     0.098 A 
HETATM   16  C   UNK N   1       4.143  -1.210  -0.609  0.00  0.00     0.040 A 
HETATM   17  C   UNK N   1       2.760  -1.368  -0.544  0.00  0.00     0.017 A 
BRANCH  14  18
HETATM   18  O   UNK N   1       4.488   2.180   0.747  0.00  0.00    -0.358 OA
HETATM   19  H   UNK N   1       5.444   2.324   0.760  0.00  0.00     0.218 HD
ENDBRANCH  14  18
BRANCH  15  20
HETATM   20  O   UNK N   1       6.082   0.124  -0.238  0.00  0.00    -0.358 OA
HETATM   21  H   UNK N   1       6.653  -0.577  -0.583  0.00  0.00     0.218 HD
ENDBRANCH  15  20
ENDBRANCH   5  12
BRANCH   8  22
HETATM   22  O   UNK N   1      -4.518  -1.730   0.227  0.00  0.00    -0.360 OA
HETATM   23  H   UNK N   1      -4.213  -2.634   0.339  0.00  0.00     0.217 HD
ENDBRANCH   8  22
BRANCH  10  24
HETATM   24  O   UNK N   1      -4.374   2.967  -0.301  0.00  0.00    -0.361 OA
HETATM   25  H   UNK N   1      -5.342   3.006  -0.305  0.00  0.00     0.217 HD
ENDBRANCH  10  24
TORSDOF 5
