REMARK  4 active torsions:
REMARK  status: ('A' for Active; 'I' for Inactive)
REMARK    1  A    between atoms: O_1  and  C_9 
REMARK    2  A    between atoms: O_2  and  C_12 
REMARK    3  A    between atoms: C_4  and  C_10 
REMARK    4  A    between atoms: C_11  and  C_12 
ROOT
HETATM    1  C   UNK N   1       0.341  -0.274   0.061  0.00  0.00    -0.036 A 
HETATM    2  C   UNK N   1       0.863   1.033   0.172  0.00  0.00     0.014 A 
HETATM    3  C   UNK N   1       1.235  -1.350  -0.078  0.00  0.00     0.014 A 
HETATM    4  C   UNK N   1       2.241   1.250   0.135  0.00  0.00     0.037 A 
HETATM    5  C   UNK N   1       2.615  -1.126  -0.125  0.00  0.00     0.037 A 
HETATM    6  C   UNK N   1       3.122   0.173  -0.019  0.00  0.00     0.065 A 
ENDROOT
BRANCH   1   7
HETATM    7  C   UNK N   1      -1.123  -0.556   0.086  0.00  0.00     0.018 C 
HETATM    8  C   UNK N   1      -2.064   0.401  -0.046  0.00  0.00     0.082 C 
BRANCH   8   9
HETATM    9  C   UNK N   1      -3.509   0.094  -0.031  0.00  0.00     0.165 C 
HETATM   10  O   UNK N   1      -3.909  -1.043   0.166  0.00  0.00    -0.647 OA
BRANCH   9  11
HETATM   11  O   UNK N   1      -4.392   1.095  -0.238  0.00  0.00    -0.773 OA
HETATM   12  H   UNK N   1      -5.345   0.931  -0.243  0.00  0.00     0.167 HD
ENDBRANCH   9  11
ENDBRANCH   8   9
ENDBRANCH   1   7
BRANCH   6  13
HETATM   13  O   UNK N   1       4.454   0.377  -0.065  0.00  0.00    -0.361 OA
HETATM   14  H   UNK N   1       4.833   1.265   0.006  0.00  0.00     0.217 HD
ENDBRANCH   6  13
TORSDOF 4
