REMARK  3 active torsions:
REMARK  status: ('A' for Active; 'I' for Inactive)
REMARK    1  A    between atoms: C_2  and  C_4 
REMARK    2  A    between atoms: C_3  and  C_5 
REMARK    3  A    between atoms: C_4  and  C_6 
ROOT
HETATM    1  O   UNK N   1       1.224  -2.235   0.148  0.00  0.00    -0.288 OA
HETATM    2  C   UNK N   1       1.202  -1.013   0.170  0.00  0.00     0.182 C 
ENDROOT
BRANCH   2   3
HETATM    3  C   UNK N   1       2.487  -0.254   0.066  0.00  0.00     0.014 A 
HETATM    4  C   UNK N   1       2.563   1.128   0.345  0.00  0.00     0.015 A 
HETATM    5  C   UNK N   1       3.770   1.815   0.202  0.00  0.00     0.001 A 
HETATM    6  C   UNK N   1       4.914   1.142  -0.227  0.00  0.00     0.000 A 
HETATM    7  C   UNK N   1       4.858  -0.225  -0.500  0.00  0.00     0.001 A 
HETATM    8  C   UNK N   1       3.656  -0.924  -0.348  0.00  0.00     0.015 A 
ENDBRANCH   2   3
BRANCH   2   9
HETATM    9  C   UNK N   1      -0.109  -0.306   0.186  0.00  0.00     0.056 C 
HETATM   10  C   UNK N   1      -1.282  -0.969   0.172  0.00  0.00     0.015 C 
BRANCH  10  11
HETATM   11  C   UNK N   1      -2.608  -0.290   0.076  0.00  0.00    -0.036 A 
HETATM   12  C   UNK N   1      -2.764   1.113   0.174  0.00  0.00     0.011 A 
HETATM   13  C   UNK N   1      -4.027   1.694   0.035  0.00  0.00     0.001 A 
HETATM   14  C   UNK N   1      -5.145   0.896  -0.204  0.00  0.00     0.000 A 
HETATM   15  C   UNK N   1      -5.006  -0.490  -0.297  0.00  0.00     0.001 A 
HETATM   16  C   UNK N   1      -3.747  -1.081  -0.153  0.00  0.00     0.011 A 
ENDBRANCH  10  11
ENDBRANCH   2   9
TORSDOF 3
