REMARK  12 active torsions:
REMARK  status: ('A' for Active; 'I' for Inactive)
REMARK    1  A    between atoms: O_2  and  C_12 
REMARK    2  A    between atoms: O_2  and  C_24 
REMARK    3  A    between atoms: O_3  and  C_18 
REMARK    4  A    between atoms: O_4  and  C_23 
REMARK    5  A    between atoms: O_5  and  C_25 
REMARK    6  A    between atoms: O_6  and  C_26 
REMARK    7  A    between atoms: O_8  and  C_27 
REMARK    8  A    between atoms: O_9  and  C_31 
REMARK    9  A    between atoms: O_10  and  C_32 
REMARK   10  A    between atoms: O_11  and  C_33 
REMARK   11  A    between atoms: C_13  and  C_16 
REMARK   12  A    between atoms: C_24  and  C_28 
ROOT
HETATM    1  O   UNK N   1      -1.152  -1.852  -0.485  0.00  0.00    -0.338 OA
HETATM    2  C   UNK N   1      -0.835  -0.696   1.583  0.00  0.00     0.170 C 
HETATM    3  C   UNK N   1      -1.834  -1.338   0.608  0.00  0.00     0.192 C 
HETATM    4  C   UNK N   1       0.153  -1.789   2.053  0.00  0.00     0.080 C 
HETATM    5  C   UNK N   1       0.688  -2.589   0.879  0.00  0.00     0.011 A 
HETATM    6  C   UNK N   1      -0.005  -2.565  -0.354  0.00  0.00     0.081 A 
HETATM    7  C   UNK N   1       1.852  -3.368   1.005  0.00  0.00     0.077 A 
HETATM    8  C   UNK N   1       0.483  -3.286  -1.447  0.00  0.00     0.074 A 
HETATM    9  C   UNK N   1       2.326  -4.097  -0.099  0.00  0.00     0.073 A 
HETATM   10  C   UNK N   1       1.647  -4.055  -1.321  0.00  0.00     0.071 A 
ENDROOT
BRANCH   2  11
HETATM   11  O   UNK N   1      -0.128   0.278   0.907  0.00  0.00    -0.309 OA
BRANCH  11  12
HETATM   12  C   UNK N   1       0.679   1.198   1.494  0.00  0.00     0.294 C 
HETATM   13  O   UNK N   1       0.477   1.560   2.644  0.00  0.00    -0.259 OA
BRANCH  12  14
HETATM   14  C   UNK N   1       1.804   1.755   0.715  0.00  0.00     0.045 A 
HETATM   15  C   UNK N   1       2.517   2.879   1.163  0.00  0.00     0.057 A 
HETATM   16  C   UNK N   1       3.578   3.392   0.399  0.00  0.00     0.102 A 
HETATM   17  C   UNK N   1       3.943   2.763  -0.808  0.00  0.00     0.132 A 
HETATM   18  C   UNK N   1       3.244   1.629  -1.243  0.00  0.00     0.102 A 
HETATM   19  C   UNK N   1       2.175   1.137  -0.488  0.00  0.00     0.057 A 
BRANCH  16  20
HETATM   20  O   UNK N   1       4.247   4.487   0.818  0.00  0.00    -0.358 OA
HETATM   21  H   UNK N   1       4.010   4.948   1.635  0.00  0.00     0.218 HD
ENDBRANCH  16  20
BRANCH  17  22
HETATM   22  O   UNK N   1       4.961   3.237  -1.558  0.00  0.00    -0.356 OA
HETATM   23  H   UNK N   1       5.466   4.023  -1.308  0.00  0.00     0.218 HD
ENDBRANCH  17  22
BRANCH  18  24
HETATM   24  O   UNK N   1       3.606   1.014  -2.387  0.00  0.00    -0.358 OA
HETATM   25  H   UNK N   1       3.156   0.216  -2.700  0.00  0.00     0.218 HD
ENDBRANCH  18  24
ENDBRANCH  12  14
ENDBRANCH  11  12
ENDBRANCH   2  11
BRANCH   3  26
HETATM   26  C   UNK N   1      -2.901  -0.362   0.158  0.00  0.00    -0.021 A 
HETATM   27  C   UNK N   1      -4.103  -0.277   0.875  0.00  0.00     0.049 A 
HETATM   28  C   UNK N   1      -5.110   0.613   0.476  0.00  0.00     0.102 A 
HETATM   29  C   UNK N   1      -4.923   1.425  -0.651  0.00  0.00     0.132 A 
HETATM   30  C   UNK N   1      -3.720   1.349  -1.377  0.00  0.00     0.102 A 
HETATM   31  C   UNK N   1      -2.711   0.461  -0.968  0.00  0.00     0.049 A 
BRANCH  28  32
HETATM   32  O   UNK N   1      -6.263   0.693   1.173  0.00  0.00    -0.358 OA
HETATM   33  H   UNK N   1      -6.421   0.149   1.959  0.00  0.00     0.218 HD
ENDBRANCH  28  32
BRANCH  29  34
HETATM   34  O   UNK N   1      -5.908   2.271  -1.026  0.00  0.00    -0.356 OA
HETATM   35  H   UNK N   1      -5.831   2.847  -1.799  0.00  0.00     0.218 HD
ENDBRANCH  29  34
BRANCH  30  36
HETATM   36  O   UNK N   1      -3.539   2.127  -2.466  0.00  0.00    -0.358 OA
HETATM   37  H   UNK N   1      -2.727   2.093  -2.991  0.00  0.00     0.218 HD
ENDBRANCH  30  36
ENDBRANCH   3  26
BRANCH   7  38
HETATM   38  O   UNK N   1       2.515  -3.407   2.180  0.00  0.00    -0.360 OA
HETATM   39  H   UNK N   1       3.325  -3.925   2.291  0.00  0.00     0.217 HD
ENDBRANCH   7  38
BRANCH  10  40
HETATM   40  O   UNK N   1       2.116  -4.766  -2.367  0.00  0.00    -0.361 OA
HETATM   41  H   UNK N   1       1.663  -4.772  -3.223  0.00  0.00     0.217 HD
ENDBRANCH  10  40
TORSDOF 12
