REMARK  7 active torsions:
REMARK  status: ('A' for Active; 'I' for Inactive)
REMARK    1  A    between atoms: O_2  and  C_8 
REMARK    2  A    between atoms: O_3  and  C_14 
REMARK    3  A    between atoms: O_4  and  C_19 
REMARK    4  A    between atoms: O_5  and  C_20 
REMARK    5  A    between atoms: O_6  and  C_21 
REMARK    6  A    between atoms: O_7  and  C_22 
REMARK    7  A    between atoms: C_9  and  C_12 
ROOT
HETATM    1  O   UNK N   1       0.634   0.582  -0.249  0.00  0.00    -0.338 OA
HETATM    2  C   UNK N   1       0.329  -1.682   0.440  0.00  0.00     0.156 C 
HETATM    3  C   UNK N   1      -0.135  -0.544  -0.485  0.00  0.00     0.191 C 
HETATM    4  C   UNK N   1       1.819  -1.977   0.177  0.00  0.00     0.079 C 
HETATM    5  C   UNK N   1       2.635  -0.707   0.065  0.00  0.00     0.011 A 
HETATM    6  C   UNK N   1       1.982   0.529  -0.141  0.00  0.00     0.081 A 
HETATM    7  C   UNK N   1       4.038  -0.747   0.134  0.00  0.00     0.077 A 
HETATM    8  C   UNK N   1       2.726   1.706  -0.249  0.00  0.00     0.074 A 
HETATM    9  C   UNK N   1       4.776   0.442   0.018  0.00  0.00     0.073 A 
HETATM   10  C   UNK N   1       4.124   1.666  -0.173  0.00  0.00     0.071 A 
ENDROOT
BRANCH   3  11
HETATM   11  C   UNK N   1      -1.586  -0.191  -0.274  0.00  0.00    -0.021 A 
HETATM   12  C   UNK N   1      -2.498  -0.302  -1.332  0.00  0.00     0.049 A 
HETATM   13  C   UNK N   1      -3.847   0.028  -1.145  0.00  0.00     0.102 A 
HETATM   14  C   UNK N   1      -4.292   0.473   0.116  0.00  0.00     0.132 A 
HETATM   15  C   UNK N   1      -3.382   0.588   1.176  0.00  0.00     0.102 A 
HETATM   16  C   UNK N   1      -2.034   0.261   0.979  0.00  0.00     0.049 A 
BRANCH  13  17
HETATM   17  O   UNK N   1      -4.717  -0.078  -2.171  0.00  0.00    -0.358 OA
HETATM   18  H   UNK N   1      -4.435  -0.376  -3.048  0.00  0.00     0.218 HD
ENDBRANCH  13  17
BRANCH  14  19
HETATM   19  O   UNK N   1      -5.588   0.792   0.320  0.00  0.00    -0.356 OA
HETATM   20  H   UNK N   1      -6.252   0.727  -0.380  0.00  0.00     0.218 HD
ENDBRANCH  14  19
BRANCH  15  21
HETATM   21  O   UNK N   1      -3.810   1.013   2.383  0.00  0.00    -0.358 OA
HETATM   22  H   UNK N   1      -3.207   1.097   3.137  0.00  0.00     0.218 HD
ENDBRANCH  15  21
ENDBRANCH   3  11
BRANCH   2  23
HETATM   23  O   UNK N   1      -0.446  -2.833   0.227  0.00  0.00    -0.392 OA
HETATM   24  H   UNK N   1      -0.159  -3.504   0.900  0.00  0.00     0.210 HD
ENDBRANCH   2  23
BRANCH   7  25
HETATM   25  O   UNK N   1       4.670  -1.925   0.322  0.00  0.00    -0.360 OA
HETATM   26  H   UNK N   1       5.634  -1.981   0.390  0.00  0.00     0.217 HD
ENDBRANCH   7  25
BRANCH  10  27
HETATM   27  O   UNK N   1       4.848   2.797  -0.291  0.00  0.00    -0.361 OA
HETATM   28  H   UNK N   1       4.428   3.657  -0.437  0.00  0.00     0.217 HD
ENDBRANCH  10  27
TORSDOF 7
