REMARK  7 active torsions:
REMARK  status: ('A' for Active; 'I' for Inactive)
REMARK    1  A    between atoms: O_2  and  C_8 
REMARK    2  A    between atoms: O_3  and  C_14 
REMARK    3  A    between atoms: O_4  and  C_19 
REMARK    4  A    between atoms: O_5  and  C_20 
REMARK    5  A    between atoms: O_6  and  C_21 
REMARK    6  A    between atoms: O_7  and  C_22 
REMARK    7  A    between atoms: C_9  and  C_12 
ROOT
HETATM    1  O   UNK N   1       0.630   0.542  -0.325  0.00  0.00    -0.338 OA
HETATM    2  C   UNK N   1       0.277  -1.607   0.645  0.00  0.00     0.156 C 
HETATM    3  C   UNK N   1      -0.162  -0.590  -0.420  0.00  0.00     0.191 C 
HETATM    4  C   UNK N   1       1.747  -1.986   0.380  0.00  0.00     0.079 C 
HETATM    5  C   UNK N   1       2.600  -0.766   0.091  0.00  0.00     0.011 A 
HETATM    6  C   UNK N   1       1.978   0.462  -0.233  0.00  0.00     0.081 A 
HETATM    7  C   UNK N   1       4.003  -0.846   0.111  0.00  0.00     0.077 A 
HETATM    8  C   UNK N   1       2.749   1.596  -0.482  0.00  0.00     0.074 A 
HETATM    9  C   UNK N   1       4.770   0.299  -0.156  0.00  0.00     0.073 A 
HETATM   10  C   UNK N   1       4.147   1.519  -0.445  0.00  0.00     0.071 A 
ENDROOT
BRANCH   3  11
HETATM   11  C   UNK N   1      -1.615  -0.230  -0.280  0.00  0.00    -0.021 A 
HETATM   12  C   UNK N   1      -2.576  -0.954  -0.993  0.00  0.00     0.049 A 
HETATM   13  C   UNK N   1      -3.935  -0.646  -0.865  0.00  0.00     0.102 A 
HETATM   14  C   UNK N   1      -4.342   0.398  -0.019  0.00  0.00     0.132 A 
HETATM   15  C   UNK N   1      -3.377   1.130   0.701  0.00  0.00     0.102 A 
HETATM   16  C   UNK N   1      -2.021   0.811   0.570  0.00  0.00     0.049 A 
BRANCH  13  17
HETATM   17  O   UNK N   1      -4.856  -1.354  -1.551  0.00  0.00    -0.358 OA
HETATM   18  H   UNK N   1      -4.601  -2.083  -2.136  0.00  0.00     0.218 HD
ENDBRANCH  13  17
BRANCH  14  19
HETATM   19  O   UNK N   1      -5.655   0.686   0.094  0.00  0.00    -0.356 OA
HETATM   20  H   UNK N   1      -5.979   1.397   0.665  0.00  0.00     0.218 HD
ENDBRANCH  14  19
BRANCH  15  21
HETATM   21  O   UNK N   1      -3.759   2.136   1.517  0.00  0.00    -0.358 OA
HETATM   22  H   UNK N   1      -3.114   2.654   2.021  0.00  0.00     0.218 HD
ENDBRANCH  15  21
ENDBRANCH   3  11
BRANCH   2  23
HETATM   23  O   UNK N   1       0.174  -1.036   1.926  0.00  0.00    -0.392 OA
HETATM   24  H   UNK N   1      -0.775  -1.120   2.205  0.00  0.00     0.210 HD
ENDBRANCH   2  23
BRANCH   7  25
HETATM   25  O   UNK N   1       4.607  -2.019   0.394  0.00  0.00    -0.360 OA
HETATM   26  H   UNK N   1       5.571  -2.103   0.416  0.00  0.00     0.217 HD
ENDBRANCH   7  25
BRANCH  10  27
HETATM   27  O   UNK N   1       4.898   2.609  -0.699  0.00  0.00    -0.361 OA
HETATM   28  H   UNK N   1       4.495   3.463  -0.910  0.00  0.00     0.217 HD
ENDBRANCH  10  27
TORSDOF 7
