MODEL 1
REMARK VINA RESULT:      -4.9      0.000      0.000
REMARK  5 active torsions:
REMARK  status: ('A' for Active; 'I' for Inactive)
REMARK    1  A    between atoms: O_1  and  C_6 
REMARK    2  A    between atoms: O_2  and  C_7 
REMARK    3  A    between atoms: O_3  and  C_9 
REMARK    4  A    between atoms: O_4  and  C_12 
REMARK    5  A    between atoms: C_8  and  C_12 
ROOT
HETATM    1  C   UNK N   1     205.800 209.236 220.830  0.00  0.00     0.105 A 
HETATM    2  C   UNK N   1     204.287 207.699 221.982  0.00  0.00     0.105 A 
HETATM    3  C   UNK N   1     205.968 206.831 220.436  0.00  0.00     0.043 A 
HETATM    4  C   UNK N   1     204.734 209.009 221.729  0.00  0.00     0.133 A 
HETATM    5  C   UNK N   1     206.406 208.135 220.192  0.00  0.00     0.058 A 
HETATM    6  C   UNK N   1     204.911 206.616 221.330  0.00  0.00     0.058 A 
ENDROOT
BRANCH   3   7
HETATM    7  C   UNK N   1     206.624 205.691 219.751  0.00  0.00     0.176 C 
HETATM    8  O   UNK N   1     207.091 204.766 220.398  0.00  0.00    -0.646 OA
BRANCH   7   9
HETATM    9  O   UNK N   1     206.704 205.671 218.402  0.00  0.00    -0.773 OA
HETATM   10  H   UNK N   1     206.244 204.999 217.881  0.00  0.00     0.167 HD
ENDBRANCH   7   9
ENDBRANCH   3   7
BRANCH   1  11
HETATM   11  O   UNK N   1     206.223 210.507 220.594  0.00  0.00    -0.353 OA
HETATM   12  C   UNK N   1     206.855 210.922 219.435  0.00  0.00     0.210 C 
ENDBRANCH   1  11
BRANCH   2  13
HETATM   13  O   UNK N   1     203.258 207.506 222.853  0.00  0.00    -0.353 OA
HETATM   14  C   UNK N   1     202.085 206.840 222.548  0.00  0.00     0.210 C 
ENDBRANCH   2  13
BRANCH   4  15
HETATM   15  O   UNK N   1     204.131 210.044 222.358  0.00  0.00    -0.356 OA
HETATM   16  H   UNK N   1     203.983 210.057 223.314  0.00  0.00     0.218 HD
ENDBRANCH   4  15
TORSDOF 5
ENDMDL
MODEL 2
REMARK VINA RESULT:      -4.9      0.099      3.440
REMARK  5 active torsions:
REMARK  status: ('A' for Active; 'I' for Inactive)
REMARK    1  A    between atoms: O_1  and  C_6 
REMARK    2  A    between atoms: O_2  and  C_7 
REMARK    3  A    between atoms: O_3  and  C_9 
REMARK    4  A    between atoms: O_4  and  C_12 
REMARK    5  A    between atoms: C_8  and  C_12 
ROOT
HETATM    1  C   UNK N   1     204.318 207.691 222.000  0.00  0.00     0.105 A 
HETATM    2  C   UNK N   1     205.801 209.237 220.822  0.00  0.00     0.105 A 
HETATM    3  C   UNK N   1     205.987 206.831 220.439  0.00  0.00     0.043 A 
HETATM    4  C   UNK N   1     204.753 209.009 221.732  0.00  0.00     0.133 A 
HETATM    5  C   UNK N   1     204.947 206.614 221.344  0.00  0.00     0.058 A 
HETATM    6  C   UNK N   1     206.412 208.141 220.179  0.00  0.00     0.058 A 
ENDROOT
BRANCH   3   7
HETATM    7  C   UNK N   1     206.632 205.679 219.762  0.00  0.00     0.176 C 
HETATM    8  O   UNK N   1     207.113 204.767 220.416  0.00  0.00    -0.646 OA
BRANCH   7   9
HETATM    9  O   UNK N   1     206.687 205.635 218.413  0.00  0.00    -0.773 OA
HETATM   10  H   UNK N   1     206.135 206.211 217.868  0.00  0.00     0.167 HD
ENDBRANCH   7   9
ENDBRANCH   3   7
BRANCH   1  11
HETATM   11  O   UNK N   1     203.304 207.483 222.883  0.00  0.00    -0.353 OA
HETATM   12  C   UNK N   1     202.002 207.180 222.526  0.00  0.00     0.210 C 
ENDBRANCH   1  11
BRANCH   2  13
HETATM   13  O   UNK N   1     206.202 210.516 220.580  0.00  0.00    -0.353 OA
HETATM   14  C   UNK N   1     206.841 210.935 219.427  0.00  0.00     0.210 C 
ENDBRANCH   2  13
BRANCH   4  15
HETATM   15  O   UNK N   1     204.171 210.065 222.345  0.00  0.00    -0.356 OA
HETATM   16  H   UNK N   1     204.342 210.979 222.080  0.00  0.00     0.218 HD
ENDBRANCH   4  15
TORSDOF 5
ENDMDL
MODEL 3
REMARK VINA RESULT:      -4.9      1.809      4.869
REMARK  5 active torsions:
REMARK  status: ('A' for Active; 'I' for Inactive)
REMARK    1  A    between atoms: O_1  and  C_6 
REMARK    2  A    between atoms: O_2  and  C_7 
REMARK    3  A    between atoms: O_3  and  C_9 
REMARK    4  A    between atoms: O_4  and  C_12 
REMARK    5  A    between atoms: C_8  and  C_12 
ROOT
HETATM    1  C   UNK N   1     206.124 206.951 220.665  0.00  0.00     0.105 A 
HETATM    2  C   UNK N   1     205.407 208.615 219.024  0.00  0.00     0.105 A 
HETATM    3  C   UNK N   1     205.189 209.080 221.413  0.00  0.00     0.043 A 
HETATM    4  C   UNK N   1     205.956 207.354 219.321  0.00  0.00     0.133 A 
HETATM    5  C   UNK N   1     205.734 207.827 221.699  0.00  0.00     0.058 A 
HETATM    6  C   UNK N   1     205.026 209.472 220.077  0.00  0.00     0.058 A 
ENDROOT
BRANCH   3   7
HETATM    7  C   UNK N   1     204.787 209.982 222.519  0.00  0.00     0.176 C 
HETATM    8  O   UNK N   1     203.684 209.880 223.033  0.00  0.00    -0.646 OA
BRANCH   7   9
HETATM    9  O   UNK N   1     205.647 210.923 222.967  0.00  0.00    -0.773 OA
HETATM   10  H   UNK N   1     205.677 211.174 223.900  0.00  0.00     0.167 HD
ENDBRANCH   7   9
ENDBRANCH   3   7
BRANCH   1  11
HETATM   11  O   UNK N   1     206.656 205.729 220.941  0.00  0.00    -0.353 OA
HETATM   12  C   UNK N   1     208.009 205.472 221.061  0.00  0.00     0.210 C 
ENDBRANCH   1  11
BRANCH   2  13
HETATM   13  O   UNK N   1     205.256 208.981 217.721  0.00  0.00    -0.353 OA
HETATM   14  C   UNK N   1     204.097 209.509 217.183  0.00  0.00     0.210 C 
ENDBRANCH   2  13
BRANCH   4  15
HETATM   15  O   UNK N   1     206.320 206.538 218.307  0.00  0.00    -0.356 OA
HETATM   16  H   UNK N   1     207.016 206.770 217.676  0.00  0.00     0.218 HD
ENDBRANCH   4  15
TORSDOF 5
ENDMDL
MODEL 4
REMARK VINA RESULT:      -4.8      1.517      4.098
REMARK  5 active torsions:
REMARK  status: ('A' for Active; 'I' for Inactive)
REMARK    1  A    between atoms: O_1  and  C_6 
REMARK    2  A    between atoms: O_2  and  C_7 
REMARK    3  A    between atoms: O_3  and  C_9 
REMARK    4  A    between atoms: O_4  and  C_12 
REMARK    5  A    between atoms: C_8  and  C_12 
ROOT
HETATM    1  C   UNK N   1     205.583 206.247 221.057  0.00  0.00     0.105 A 
HETATM    2  C   UNK N   1     203.623 206.330 222.516  0.00  0.00     0.105 A 
HETATM    3  C   UNK N   1     204.893 208.366 222.055  0.00  0.00     0.043 A 
HETATM    4  C   UNK N   1     204.504 205.598 221.699  0.00  0.00     0.133 A 
HETATM    5  C   UNK N   1     205.763 207.631 221.246  0.00  0.00     0.058 A 
HETATM    6  C   UNK N   1     203.826 207.714 222.688  0.00  0.00     0.058 A 
ENDROOT
BRANCH   3   7
HETATM    7  C   UNK N   1     205.105 209.822 222.238  0.00  0.00     0.176 C 
HETATM    8  O   UNK N   1     204.471 210.440 223.079  0.00  0.00    -0.646 OA
BRANCH   7   9
HETATM    9  O   UNK N   1     206.007 210.473 221.470  0.00  0.00    -0.773 OA
HETATM   10  H   UNK N   1     205.995 211.436 221.388  0.00  0.00     0.167 HD
ENDBRANCH   7   9
ENDBRANCH   3   7
BRANCH   1  11
HETATM   11  O   UNK N   1     206.429 205.528 220.269  0.00  0.00    -0.353 OA
HETATM   12  C   UNK N   1     206.357 205.471 218.888  0.00  0.00     0.210 C 
ENDBRANCH   1  11
BRANCH   2  13
HETATM   13  O   UNK N   1     202.591 205.683 223.124  0.00  0.00    -0.353 OA
HETATM   14  C   UNK N   1     201.267 205.775 222.736  0.00  0.00     0.210 C 
ENDBRANCH   2  13
BRANCH   4  15
HETATM   15  O   UNK N   1     204.304 204.270 221.538  0.00  0.00    -0.356 OA
HETATM   16  H   UNK N   1     203.837 203.731 222.192  0.00  0.00     0.218 HD
ENDBRANCH   4  15
TORSDOF 5
ENDMDL
MODEL 5
REMARK VINA RESULT:      -4.8      1.712      5.233
REMARK  5 active torsions:
REMARK  status: ('A' for Active; 'I' for Inactive)
REMARK    1  A    between atoms: O_1  and  C_6 
REMARK    2  A    between atoms: O_2  and  C_7 
REMARK    3  A    between atoms: O_3  and  C_9 
REMARK    4  A    between atoms: O_4  and  C_12 
REMARK    5  A    between atoms: C_8  and  C_12 
ROOT
HETATM    1  C   UNK N   1     204.001 206.031 221.779  0.00  0.00     0.105 A 
HETATM    2  C   UNK N   1     206.213 206.582 220.897  0.00  0.00     0.105 A 
HETATM    3  C   UNK N   1     204.861 208.309 221.975  0.00  0.00     0.043 A 
HETATM    4  C   UNK N   1     205.192 205.642 221.126  0.00  0.00     0.133 A 
HETATM    5  C   UNK N   1     203.852 207.369 222.197  0.00  0.00     0.058 A 
HETATM    6  C   UNK N   1     206.038 207.914 221.326  0.00  0.00     0.058 A 
ENDROOT
BRANCH   3   7
HETATM    7  C   UNK N   1     204.678 209.710 222.425  0.00  0.00     0.176 C 
HETATM    8  O   UNK N   1     203.586 210.100 222.809  0.00  0.00    -0.646 OA
BRANCH   7   9
HETATM    9  O   UNK N   1     205.726 210.563 222.414  0.00  0.00    -0.773 OA
HETATM   10  H   UNK N   1     206.622 210.262 222.615  0.00  0.00     0.167 HD
ENDBRANCH   7   9
ENDBRANCH   3   7
BRANCH   1  11
HETATM   11  O   UNK N   1     203.020 205.113 221.995  0.00  0.00    -0.353 OA
HETATM   12  C   UNK N   1     202.047 205.218 222.973  0.00  0.00     0.210 C 
ENDBRANCH   1  11
BRANCH   2  13
HETATM   13  O   UNK N   1     207.352 206.184 220.265  0.00  0.00    -0.353 OA
HETATM   14  C   UNK N   1     208.546 205.900 220.902  0.00  0.00     0.210 C 
ENDBRANCH   2  13
BRANCH   4  15
HETATM   15  O   UNK N   1     205.366 204.367 220.712  0.00  0.00    -0.356 OA
HETATM   16  H   UNK N   1     204.752 203.928 220.106  0.00  0.00     0.218 HD
ENDBRANCH   4  15
TORSDOF 5
ENDMDL
MODEL 6
REMARK VINA RESULT:      -4.8      1.858      4.480
REMARK  5 active torsions:
REMARK  status: ('A' for Active; 'I' for Inactive)
REMARK    1  A    between atoms: O_1  and  C_6 
REMARK    2  A    between atoms: O_2  and  C_7 
REMARK    3  A    between atoms: O_3  and  C_9 
REMARK    4  A    between atoms: O_4  and  C_12 
REMARK    5  A    between atoms: C_8  and  C_12 
ROOT
HETATM    1  C   UNK N   1     205.073 208.280 219.019  0.00  0.00     0.105 A 
HETATM    2  C   UNK N   1     206.293 206.950 220.668  0.00  0.00     0.105 A 
HETATM    3  C   UNK N   1     205.148 208.997 221.352  0.00  0.00     0.043 A 
HETATM    4  C   UNK N   1     205.862 207.154 219.344  0.00  0.00     0.133 A 
HETATM    5  C   UNK N   1     204.725 209.192 220.036  0.00  0.00     0.058 A 
HETATM    6  C   UNK N   1     205.931 207.878 221.665  0.00  0.00     0.058 A 
ENDROOT
BRANCH   3   7
HETATM    7  C   UNK N   1     204.768 209.972 222.403  0.00  0.00     0.176 C 
HETATM    8  O   UNK N   1     203.646 209.958 222.884  0.00  0.00    -0.646 OA
BRANCH   7   9
HETATM    9  O   UNK N   1     205.669 210.883 222.835  0.00  0.00    -0.773 OA
HETATM   10  H   UNK N   1     206.537 210.614 223.165  0.00  0.00     0.167 HD
ENDBRANCH   7   9
ENDBRANCH   3   7
BRANCH   1  11
HETATM   11  O   UNK N   1     204.662 208.467 217.735  0.00  0.00    -0.353 OA
HETATM   12  C   UNK N   1     204.944 209.588 216.976  0.00  0.00     0.210 C 
ENDBRANCH   1  11
BRANCH   2  13
HETATM   13  O   UNK N   1     207.053 205.857 220.956  0.00  0.00    -0.353 OA
HETATM   14  C   UNK N   1     208.433 205.858 221.034  0.00  0.00     0.210 C 
ENDBRANCH   2  13
BRANCH   4  15
HETATM   15  O   UNK N   1     206.213 206.260 218.391  0.00  0.00    -0.356 OA
HETATM   16  H   UNK N   1     206.760 205.485 218.582  0.00  0.00     0.218 HD
ENDBRANCH   4  15
TORSDOF 5
ENDMDL
MODEL 7
REMARK VINA RESULT:      -4.5      2.213      4.106
REMARK  5 active torsions:
REMARK  status: ('A' for Active; 'I' for Inactive)
REMARK    1  A    between atoms: O_1  and  C_6 
REMARK    2  A    between atoms: O_2  and  C_7 
REMARK    3  A    between atoms: O_3  and  C_9 
REMARK    4  A    between atoms: O_4  and  C_12 
REMARK    5  A    between atoms: C_8  and  C_12 
ROOT
HETATM    1  C   UNK N   1     204.852 205.347 219.638  0.00  0.00     0.105 A 
HETATM    2  C   UNK N   1     205.663 207.554 220.308  0.00  0.00     0.105 A 
HETATM    3  C   UNK N   1     207.089 205.590 220.590  0.00  0.00     0.043 A 
HETATM    4  C   UNK N   1     204.650 206.740 219.769  0.00  0.00     0.133 A 
HETATM    5  C   UNK N   1     206.078 204.789 220.054  0.00  0.00     0.058 A 
HETATM    6  C   UNK N   1     206.880 206.969 220.715  0.00  0.00     0.058 A 
ENDROOT
BRANCH   3   7
HETATM    7  C   UNK N   1     208.369 204.976 221.019  0.00  0.00     0.176 C 
HETATM    8  O   UNK N   1     208.374 204.034 221.796  0.00  0.00    -0.646 OA
BRANCH   7   9
HETATM    9  O   UNK N   1     209.539 205.459 220.547  0.00  0.00    -0.773 OA
HETATM   10  H   UNK N   1     209.634 206.387 220.290  0.00  0.00     0.167 HD
ENDBRANCH   7   9
ENDBRANCH   3   7
BRANCH   1  11
HETATM   11  O   UNK N   1     203.865 204.569 219.116  0.00  0.00    -0.353 OA
HETATM   12  C   UNK N   1     203.858 204.072 217.825  0.00  0.00     0.210 C 
ENDBRANCH   1  11
BRANCH   2  13
HETATM   13  O   UNK N   1     205.445 208.893 220.424  0.00  0.00    -0.353 OA
HETATM   14  C   UNK N   1     206.120 209.864 219.707  0.00  0.00     0.210 C 
ENDBRANCH   2  13
BRANCH   4  15
HETATM   15  O   UNK N   1     203.486 207.307 219.380  0.00  0.00    -0.356 OA
HETATM   16  H   UNK N   1     203.232 208.203 219.640  0.00  0.00     0.218 HD
ENDBRANCH   4  15
TORSDOF 5
ENDMDL
MODEL 8
REMARK VINA RESULT:      -4.4      1.303      3.800
REMARK  5 active torsions:
REMARK  status: ('A' for Active; 'I' for Inactive)
REMARK    1  A    between atoms: O_1  and  C_6 
REMARK    2  A    between atoms: O_2  and  C_7 
REMARK    3  A    between atoms: O_3  and  C_9 
REMARK    4  A    between atoms: O_4  and  C_12 
REMARK    5  A    between atoms: C_8  and  C_12 
ROOT
HETATM    1  C   UNK N   1     205.706 206.677 220.795  0.00  0.00     0.105 A 
HETATM    2  C   UNK N   1     204.160 208.175 221.953  0.00  0.00     0.105 A 
HETATM    3  C   UNK N   1     205.739 209.071 220.318  0.00  0.00     0.043 A 
HETATM    4  C   UNK N   1     204.663 206.881 221.726  0.00  0.00     0.133 A 
HETATM    5  C   UNK N   1     206.232 207.783 220.099  0.00  0.00     0.058 A 
HETATM    6  C   UNK N   1     204.705 209.265 221.243  0.00  0.00     0.058 A 
ENDROOT
BRANCH   3   7
HETATM    7  C   UNK N   1     206.310 210.219 219.572  0.00  0.00     0.176 C 
HETATM    8  O   UNK N   1     206.231 210.267 218.354  0.00  0.00    -0.646 OA
BRANCH   7   9
HETATM    9  O   UNK N   1     206.922 211.220 220.242  0.00  0.00    -0.773 OA
HETATM   10  H   UNK N   1     206.497 211.657 220.991  0.00  0.00     0.167 HD
ENDBRANCH   7   9
ENDBRANCH   3   7
BRANCH   1  11
HETATM   11  O   UNK N   1     206.184 205.420 220.584  0.00  0.00    -0.353 OA
HETATM   12  C   UNK N   1     207.499 205.037 220.781  0.00  0.00     0.210 C 
ENDBRANCH   1  11
BRANCH   2  13
HETATM   13  O   UNK N   1     203.155 208.347 222.856  0.00  0.00    -0.353 OA
HETATM   14  C   UNK N   1     202.405 209.501 222.987  0.00  0.00     0.210 C 
ENDBRANCH   2  13
BRANCH   4  15
HETATM   15  O   UNK N   1     204.137 205.840 222.411  0.00  0.00    -0.356 OA
HETATM   16  H   UNK N   1     204.255 205.731 223.365  0.00  0.00     0.218 HD
ENDBRANCH   4  15
TORSDOF 5
ENDMDL
MODEL 9
REMARK VINA RESULT:      -4.3     22.331     22.897
REMARK  5 active torsions:
REMARK  status: ('A' for Active; 'I' for Inactive)
REMARK    1  A    between atoms: O_1  and  C_6 
REMARK    2  A    between atoms: O_2  and  C_7 
REMARK    3  A    between atoms: O_3  and  C_9 
REMARK    4  A    between atoms: O_4  and  C_12 
REMARK    5  A    between atoms: C_8  and  C_12 
ROOT
HETATM    1  C   UNK N   1     222.558 214.183 235.630  0.00  0.00     0.105 A 
HETATM    2  C   UNK N   1     221.039 212.319 236.070  0.00  0.00     0.105 A 
HETATM    3  C   UNK N   1     222.937 212.020 234.562  0.00  0.00     0.043 A 
HETATM    4  C   UNK N   1     221.418 213.658 236.279  0.00  0.00     0.133 A 
HETATM    5  C   UNK N   1     223.307 213.350 234.775  0.00  0.00     0.058 A 
HETATM    6  C   UNK N   1     221.805 211.507 235.209  0.00  0.00     0.058 A 
ENDROOT
BRANCH   3   7
HETATM    7  C   UNK N   1     223.743 211.164 233.657  0.00  0.00     0.176 C 
HETATM    8  O   UNK N   1     223.863 211.453 232.476  0.00  0.00    -0.646 OA
BRANCH   7   9
HETATM    9  O   UNK N   1     224.351 210.058 234.139  0.00  0.00    -0.773 OA
HETATM   10  H   UNK N   1     223.881 209.216 234.208  0.00  0.00     0.167 HD
ENDBRANCH   7   9
ENDBRANCH   3   7
BRANCH   1  11
HETATM   11  O   UNK N   1     222.915 215.480 235.839  0.00  0.00    -0.353 OA
HETATM   12  C   UNK N   1     224.184 215.988 235.627  0.00  0.00     0.210 C 
ENDBRANCH   1  11
BRANCH   2  13
HETATM   13  O   UNK N   1     219.936 211.836 236.706  0.00  0.00    -0.353 OA
HETATM   14  C   UNK N   1     219.965 211.060 237.851  0.00  0.00     0.210 C 
ENDBRANCH   2  13
BRANCH   4  15
HETATM   15  O   UNK N   1     220.678 214.431 237.106  0.00  0.00    -0.356 OA
HETATM   16  H   UNK N   1     219.893 214.099 237.564  0.00  0.00     0.218 HD
ENDBRANCH   4  15
TORSDOF 5
ENDMDL
