MODEL 1
REMARK VINA RESULT:      -6.6      0.000      0.000
REMARK  11 active torsions:
REMARK  status: ('A' for Active; 'I' for Inactive)
REMARK    1  A    between atoms: O_1  and  C_11 
REMARK    2  A    between atoms: O_1  and  C_17 
REMARK    3  A    between atoms: C_10  and  O_2 
REMARK    4  A    between atoms: O_3  and  C_14 
REMARK    5  A    between atoms: O_4  and  C_15 
REMARK    6  A    between atoms: O_5  and  C_16 
REMARK    7  A    between atoms: O_8  and  C_23 
REMARK    8  A    between atoms: O_9  and  C_25 
REMARK    9  A    between atoms: C_10  and  C_16 
REMARK   10  A    between atoms: C_17  and  C_18 
REMARK   11  A    between atoms: C_19  and  C_20 
ROOT
HETATM    1  C   UNK N   1     205.346 209.739 218.580  0.00  0.00     0.147 C 
HETATM    2  C   UNK N   1     203.358 208.389 219.482  0.00  0.00     0.166 C 
HETATM    3  C   UNK N   1     204.562 209.297 219.837  0.00  0.00     0.084 C 
HETATM    4  C   UNK N   1     204.379 210.479 217.626  0.00  0.00     0.083 C 
HETATM    5  C   UNK N   1     202.420 209.139 218.507  0.00  0.00     0.176 C 
HETATM    6  C   UNK N   1     203.171 209.598 217.239  0.00  0.00     0.152 C 
ENDROOT
BRANCH   2   7
HETATM    7  O   UNK N   1     202.655 208.086 220.638  0.00  0.00    -0.310 OA
BRANCH   7   8
HETATM    8  C   UNK N   1     202.502 206.824 221.123  0.00  0.00     0.283 C 
HETATM    9  O   UNK N   1     201.418 206.262 221.067  0.00  0.00    -0.260 OA
BRANCH   8  10
HETATM   10  C   UNK N   1     203.707 206.101 221.577  0.00  0.00     0.083 C 
HETATM   11  C   UNK N   1     204.480 205.408 220.717  0.00  0.00     0.017 C 
BRANCH  11  12
HETATM   12  C   UNK N   1     205.783 204.781 221.085  0.00  0.00    -0.033 A 
HETATM   13  C   UNK N   1     206.962 205.461 220.745  0.00  0.00     0.050 A 
HETATM   14  C   UNK N   1     208.218 204.965 221.111  0.00  0.00     0.099 A 
HETATM   15  C   UNK N   1     208.304 203.742 221.822  0.00  0.00     0.098 A 
HETATM   16  C   UNK N   1     207.130 203.058 222.153  0.00  0.00     0.040 A 
HETATM   17  C   UNK N   1     205.880 203.568 221.797  0.00  0.00     0.014 A 
BRANCH  14  18
HETATM   18  O   UNK N   1     209.311 205.688 220.778  0.00  0.00    -0.358 OA
HETATM   19  H   UNK N   1     209.538 206.540 221.169  0.00  0.00     0.218 HD
ENDBRANCH  14  18
BRANCH  15  20
HETATM   20  O   UNK N   1     209.485 203.203 222.199  0.00  0.00    -0.358 OA
HETATM   21  H   UNK N   1     209.586 202.567 222.918  0.00  0.00     0.218 HD
ENDBRANCH  15  20
ENDBRANCH  11  12
ENDBRANCH   8  10
ENDBRANCH   7   8
ENDBRANCH   2   7
BRANCH   5  22
HETATM   22  O   UNK N   1     201.345 208.313 218.137  0.00  0.00    -0.390 OA
HETATM   23  H   UNK N   1     201.550 207.402 218.472  0.00  0.00     0.210 HD
ENDBRANCH   5  22
BRANCH   1  24
HETATM   24  O   UNK N   1     205.875 208.616 217.909  0.00  0.00    -0.379 OA
HETATM   25  H   UNK N   1     206.618 208.251 218.457  0.00  0.00     0.211 HD
ENDBRANCH   1  24
BRANCH   1  26
HETATM   26  C   UNK N   1     206.469 210.677 218.984  0.00  0.00     0.176 C 
HETATM   27  O   UNK N   1     207.133 211.250 218.132  0.00  0.00    -0.648 OA
BRANCH  26  28
HETATM   28  O   UNK N   1     206.747 210.870 220.292  0.00  0.00    -0.774 OA
HETATM   29  H   UNK N   1     206.280 210.377 220.981  0.00  0.00     0.167 HD
ENDBRANCH  26  28
ENDBRANCH   1  26
BRANCH   6  30
HETATM   30  O   UNK N   1     203.592 208.478 216.501  0.00  0.00    -0.393 OA
HETATM   31  H   UNK N   1     202.953 208.380 215.747  0.00  0.00     0.210 HD
ENDBRANCH   6  30
TORSDOF 11
ENDMDL
MODEL 2
REMARK VINA RESULT:      -5.9      2.511      2.990
REMARK  11 active torsions:
REMARK  status: ('A' for Active; 'I' for Inactive)
REMARK    1  A    between atoms: O_1  and  C_11 
REMARK    2  A    between atoms: O_1  and  C_17 
REMARK    3  A    between atoms: C_10  and  O_2 
REMARK    4  A    between atoms: O_3  and  C_14 
REMARK    5  A    between atoms: O_4  and  C_15 
REMARK    6  A    between atoms: O_5  and  C_16 
REMARK    7  A    between atoms: O_8  and  C_23 
REMARK    8  A    between atoms: O_9  and  C_25 
REMARK    9  A    between atoms: C_10  and  C_16 
REMARK   10  A    between atoms: C_17  and  C_18 
REMARK   11  A    between atoms: C_19  and  C_20 
ROOT
HETATM    1  C   UNK N   1     202.859 209.340 221.529  0.00  0.00     0.147 C 
HETATM    2  C   UNK N   1     201.826 207.567 219.986  0.00  0.00     0.166 C 
HETATM    3  C   UNK N   1     202.648 207.830 221.273  0.00  0.00     0.084 C 
HETATM    4  C   UNK N   1     201.476 210.025 221.627  0.00  0.00     0.083 C 
HETATM    5  C   UNK N   1     200.460 208.283 220.095  0.00  0.00     0.176 C 
HETATM    6  C   UNK N   1     200.633 209.796 220.353  0.00  0.00     0.152 C 
ENDROOT
BRANCH   2   7
HETATM    7  O   UNK N   1     201.610 206.204 219.849  0.00  0.00    -0.310 OA
BRANCH   7   8
HETATM    8  C   UNK N   1     202.339 205.400 219.030  0.00  0.00     0.283 C 
HETATM    9  O   UNK N   1     202.079 205.327 217.837  0.00  0.00    -0.260 OA
BRANCH   8  10
HETATM   10  C   UNK N   1     203.537 204.740 219.586  0.00  0.00     0.083 C 
HETATM   11  C   UNK N   1     204.694 205.409 219.759  0.00  0.00     0.017 C 
BRANCH  11  12
HETATM   12  C   UNK N   1     205.891 204.842 220.448  0.00  0.00    -0.033 A 
HETATM   13  C   UNK N   1     207.132 205.457 220.226  0.00  0.00     0.050 A 
HETATM   14  C   UNK N   1     208.288 205.020 220.883  0.00  0.00     0.099 A 
HETATM   15  C   UNK N   1     208.208 203.922 221.776  0.00  0.00     0.098 A 
HETATM   16  C   UNK N   1     206.973 203.302 221.990  0.00  0.00     0.040 A 
HETATM   17  C   UNK N   1     205.823 203.754 221.341  0.00  0.00     0.014 A 
BRANCH  14  18
HETATM   18  O   UNK N   1     209.445 205.679 220.647  0.00  0.00    -0.358 OA
HETATM   19  H   UNK N   1     209.834 205.795 219.772  0.00  0.00     0.218 HD
ENDBRANCH  14  18
BRANCH  15  20
HETATM   20  O   UNK N   1     209.285 203.444 222.438  0.00  0.00    -0.358 OA
HETATM   21  H   UNK N   1     209.485 203.640 223.361  0.00  0.00     0.218 HD
ENDBRANCH  15  20
ENDBRANCH  11  12
ENDBRANCH   8  10
ENDBRANCH   7   8
ENDBRANCH   2   7
BRANCH   5  22
HETATM   22  O   UNK N   1     199.719 208.095 218.916  0.00  0.00    -0.390 OA
HETATM   23  H   UNK N   1     199.143 208.896 218.804  0.00  0.00     0.210 HD
ENDBRANCH   5  22
BRANCH   1  24
HETATM   24  O   UNK N   1     203.582 209.924 220.467  0.00  0.00    -0.379 OA
HETATM   25  H   UNK N   1     204.464 210.215 220.817  0.00  0.00     0.211 HD
ENDBRANCH   1  24
BRANCH   1  26
HETATM   26  C   UNK N   1     203.610 209.535 222.834  0.00  0.00     0.176 C 
HETATM   27  O   UNK N   1     204.530 210.338 222.905  0.00  0.00    -0.648 OA
BRANCH  26  28
HETATM   28  O   UNK N   1     203.270 208.809 223.921  0.00  0.00    -0.774 OA
HETATM   29  H   UNK N   1     202.677 208.048 223.850  0.00  0.00     0.167 HD
ENDBRANCH  26  28
ENDBRANCH   1  26
BRANCH   6  30
HETATM   30  O   UNK N   1     201.240 210.404 219.241  0.00  0.00    -0.393 OA
HETATM   31  H   UNK N   1     202.111 210.764 219.556  0.00  0.00     0.210 HD
ENDBRANCH   6  30
TORSDOF 11
ENDMDL
MODEL 3
REMARK VINA RESULT:      -5.8      1.777      2.853
REMARK  11 active torsions:
REMARK  status: ('A' for Active; 'I' for Inactive)
REMARK    1  A    between atoms: O_1  and  C_11 
REMARK    2  A    between atoms: O_1  and  C_17 
REMARK    3  A    between atoms: C_10  and  O_2 
REMARK    4  A    between atoms: O_3  and  C_14 
REMARK    5  A    between atoms: O_4  and  C_15 
REMARK    6  A    between atoms: O_5  and  C_16 
REMARK    7  A    between atoms: O_8  and  C_23 
REMARK    8  A    between atoms: O_9  and  C_25 
REMARK    9  A    between atoms: C_10  and  C_16 
REMARK   10  A    between atoms: C_17  and  C_18 
REMARK   11  A    between atoms: C_19  and  C_20 
ROOT
HETATM    1  C   UNK N   1     202.152 210.855 217.946  0.00  0.00     0.147 C 
HETATM    2  C   UNK N   1     202.990 208.765 219.180  0.00  0.00     0.166 C 
HETATM    3  C   UNK N   1     201.819 209.760 218.986  0.00  0.00     0.084 C 
HETATM    4  C   UNK N   1     202.505 210.174 216.604  0.00  0.00     0.083 C 
HETATM    5  C   UNK N   1     203.344 208.118 217.820  0.00  0.00     0.176 C 
HETATM    6  C   UNK N   1     203.681 209.185 216.756  0.00  0.00     0.152 C 
ENDROOT
BRANCH   2   7
HETATM    7  O   UNK N   1     202.606 207.770 220.065  0.00  0.00    -0.310 OA
BRANCH   7   8
HETATM    8  C   UNK N   1     202.983 207.732 221.371  0.00  0.00     0.283 C 
HETATM    9  O   UNK N   1     202.280 208.234 222.237  0.00  0.00    -0.260 OA
BRANCH   8  10
HETATM   10  C   UNK N   1     204.179 206.943 221.730  0.00  0.00     0.083 C 
HETATM   11  C   UNK N   1     204.595 205.909 220.973  0.00  0.00     0.017 C 
BRANCH  11  12
HETATM   12  C   UNK N   1     205.871 205.168 221.200  0.00  0.00    -0.033 A 
HETATM   13  C   UNK N   1     207.071 205.796 220.834  0.00  0.00     0.050 A 
HETATM   14  C   UNK N   1     208.309 205.189 221.071  0.00  0.00     0.099 A 
HETATM   15  C   UNK N   1     208.353 203.908 221.676  0.00  0.00     0.098 A 
HETATM   16  C   UNK N   1     207.157 203.278 222.032  0.00  0.00     0.040 A 
HETATM   17  C   UNK N   1     205.926 203.897 221.804  0.00  0.00     0.014 A 
BRANCH  14  18
HETATM   18  O   UNK N   1     209.428 205.864 220.722  0.00  0.00    -0.358 OA
HETATM   19  H   UNK N   1     210.100 206.161 221.347  0.00  0.00     0.218 HD
ENDBRANCH  14  18
BRANCH  15  20
HETATM   20  O   UNK N   1     209.514 203.263 221.927  0.00  0.00    -0.358 OA
HETATM   21  H   UNK N   1     210.203 203.596 222.515  0.00  0.00     0.218 HD
ENDBRANCH  15  20
ENDBRANCH  11  12
ENDBRANCH   8  10
ENDBRANCH   7   8
ENDBRANCH   2   7
BRANCH   5  22
HETATM   22  O   UNK N   1     204.436 207.247 217.967  0.00  0.00    -0.390 OA
HETATM   23  H   UNK N   1     204.185 206.579 218.657  0.00  0.00     0.210 HD
ENDBRANCH   5  22
BRANCH   1  24
HETATM   24  O   UNK N   1     203.258 211.619 218.374  0.00  0.00    -0.379 OA
HETATM   25  H   UNK N   1     203.867 211.743 217.600  0.00  0.00     0.211 HD
ENDBRANCH   1  24
BRANCH   1  26
HETATM   26  C   UNK N   1     200.946 211.756 217.751  0.00  0.00     0.176 C 
HETATM   27  O   UNK N   1     200.459 212.352 218.702  0.00  0.00    -0.648 OA
BRANCH  26  28
HETATM   28  O   UNK N   1     200.398 211.891 216.524  0.00  0.00    -0.774 OA
HETATM   29  H   UNK N   1     200.414 211.164 215.886  0.00  0.00     0.167 HD
ENDBRANCH  26  28
ENDBRANCH   1  26
BRANCH   6  30
HETATM   30  O   UNK N   1     204.857 209.864 217.117  0.00  0.00    -0.393 OA
HETATM   31  H   UNK N   1     205.462 209.820 216.330  0.00  0.00     0.210 HD
ENDBRANCH   6  30
TORSDOF 11
ENDMDL
MODEL 4
REMARK VINA RESULT:      -5.8      2.722      4.552
REMARK  11 active torsions:
REMARK  status: ('A' for Active; 'I' for Inactive)
REMARK    1  A    between atoms: O_1  and  C_11 
REMARK    2  A    between atoms: O_1  and  C_17 
REMARK    3  A    between atoms: C_10  and  O_2 
REMARK    4  A    between atoms: O_3  and  C_14 
REMARK    5  A    between atoms: O_4  and  C_15 
REMARK    6  A    between atoms: O_5  and  C_16 
REMARK    7  A    between atoms: O_8  and  C_23 
REMARK    8  A    between atoms: O_9  and  C_25 
REMARK    9  A    between atoms: C_10  and  C_16 
REMARK   10  A    between atoms: C_17  and  C_18 
REMARK   11  A    between atoms: C_19  and  C_20 
ROOT
HETATM    1  C   UNK N   1     200.995 209.734 223.213  0.00  0.00     0.147 C 
HETATM    2  C   UNK N   1     201.570 207.448 222.198  0.00  0.00     0.166 C 
HETATM    3  C   UNK N   1     200.689 208.218 223.212  0.00  0.00     0.084 C 
HETATM    4  C   UNK N   1     200.778 210.286 221.785  0.00  0.00     0.083 C 
HETATM    5  C   UNK N   1     201.358 208.035 220.783  0.00  0.00     0.176 C 
HETATM    6  C   UNK N   1     201.653 209.550 220.748  0.00  0.00     0.152 C 
ENDROOT
BRANCH   2   7
HETATM    7  O   UNK N   1     201.201 206.111 222.190  0.00  0.00    -0.310 OA
BRANCH   7   8
HETATM    8  C   UNK N   1     202.028 205.095 222.556  0.00  0.00     0.283 C 
HETATM    9  O   UNK N   1     201.577 203.989 222.819  0.00  0.00    -0.260 OA
BRANCH   8  10
HETATM   10  C   UNK N   1     203.485 205.320 222.483  0.00  0.00     0.083 C 
HETATM   11  C   UNK N   1     204.223 204.837 221.464  0.00  0.00     0.017 C 
BRANCH  11  12
HETATM   12  C   UNK N   1     205.667 205.151 221.256  0.00  0.00    -0.033 A 
HETATM   13  C   UNK N   1     206.618 204.252 221.763  0.00  0.00     0.050 A 
HETATM   14  C   UNK N   1     207.987 204.449 221.555  0.00  0.00     0.099 A 
HETATM   15  C   UNK N   1     208.426 205.588 220.834  0.00  0.00     0.098 A 
HETATM   16  C   UNK N   1     207.480 206.490 220.337  0.00  0.00     0.040 A 
HETATM   17  C   UNK N   1     206.115 206.278 220.537  0.00  0.00     0.014 A 
BRANCH  14  18
HETATM   18  O   UNK N   1     208.846 203.526 222.044  0.00  0.00    -0.358 OA
HETATM   19  H   UNK N   1     208.867 203.238 222.964  0.00  0.00     0.218 HD
ENDBRANCH  14  18
BRANCH  15  20
HETATM   20  O   UNK N   1     209.733 205.842 220.603  0.00  0.00    -0.358 OA
HETATM   21  H   UNK N   1     210.078 206.196 219.775  0.00  0.00     0.218 HD
ENDBRANCH  15  20
ENDBRANCH  11  12
ENDBRANCH   8  10
ENDBRANCH   7   8
ENDBRANCH   2   7
BRANCH   5  22
HETATM   22  O   UNK N   1     202.186 207.379 219.856  0.00  0.00    -0.390 OA
HETATM   23  H   UNK N   1     201.662 206.623 219.482  0.00  0.00     0.210 HD
ENDBRANCH   5  22
BRANCH   1  24
HETATM   24  O   UNK N   1     202.334 209.965 223.592  0.00  0.00    -0.379 OA
HETATM   25  H   UNK N   1     202.336 210.617 224.341  0.00  0.00     0.211 HD
ENDBRANCH   1  24
BRANCH   1  26
HETATM   26  C   UNK N   1     200.056 210.442 224.174  0.00  0.00     0.176 C 
HETATM   27  O   UNK N   1     199.956 210.063 225.333  0.00  0.00    -0.648 OA
BRANCH  26  28
HETATM   28  O   UNK N   1     199.316 211.488 223.745  0.00  0.00    -0.774 OA
HETATM   29  H   UNK N   1     199.724 212.232 223.281  0.00  0.00     0.167 HD
ENDBRANCH  26  28
ENDBRANCH   1  26
BRANCH   6  30
HETATM   30  O   UNK N   1     203.017 209.776 221.001  0.00  0.00    -0.393 OA
HETATM   31  H   UNK N   1     203.094 209.995 221.967  0.00  0.00     0.210 HD
ENDBRANCH   6  30
TORSDOF 11
ENDMDL
MODEL 5
REMARK VINA RESULT:      -5.7      1.648      2.295
REMARK  11 active torsions:
REMARK  status: ('A' for Active; 'I' for Inactive)
REMARK    1  A    between atoms: O_1  and  C_11 
REMARK    2  A    between atoms: O_1  and  C_17 
REMARK    3  A    between atoms: C_10  and  O_2 
REMARK    4  A    between atoms: O_3  and  C_14 
REMARK    5  A    between atoms: O_4  and  C_15 
REMARK    6  A    between atoms: O_5  and  C_16 
REMARK    7  A    between atoms: O_8  and  C_23 
REMARK    8  A    between atoms: O_9  and  C_25 
REMARK    9  A    between atoms: C_10  and  C_16 
REMARK   10  A    between atoms: C_17  and  C_18 
REMARK   11  A    between atoms: C_19  and  C_20 
ROOT
HETATM    1  C   UNK N   1     204.571 208.867 221.159  0.00  0.00     0.147 C 
HETATM    2  C   UNK N   1     203.290 206.856 220.206  0.00  0.00     0.166 C 
HETATM    3  C   UNK N   1     203.388 207.890 221.355  0.00  0.00     0.084 C 
HETATM    4  C   UNK N   1     204.400 209.588 219.802  0.00  0.00     0.083 C 
HETATM    5  C   UNK N   1     203.148 207.600 218.857  0.00  0.00     0.176 C 
HETATM    6  C   UNK N   1     204.314 208.586 218.629  0.00  0.00     0.152 C 
ENDROOT
BRANCH   2   7
HETATM    7  O   UNK N   1     202.173 206.058 220.399  0.00  0.00    -0.310 OA
BRANCH   7   8
HETATM    8  C   UNK N   1     202.132 205.009 221.263  0.00  0.00     0.283 C 
HETATM    9  O   UNK N   1     201.062 204.523 221.603  0.00  0.00    -0.260 OA
BRANCH   8  10
HETATM   10  C   UNK N   1     203.408 204.382 221.661  0.00  0.00     0.083 C 
HETATM   11  C   UNK N   1     204.505 204.461 220.882  0.00  0.00     0.017 C 
BRANCH  11  12
HETATM   12  C   UNK N   1     205.857 203.977 221.291  0.00  0.00    -0.033 A 
HETATM   13  C   UNK N   1     206.975 204.711 220.871  0.00  0.00     0.050 A 
HETATM   14  C   UNK N   1     208.269 204.354 221.265  0.00  0.00     0.099 A 
HETATM   15  C   UNK N   1     208.457 203.216 222.091  0.00  0.00     0.098 A 
HETATM   16  C   UNK N   1     207.343 202.478 222.503  0.00  0.00     0.040 A 
HETATM   17  C   UNK N   1     206.054 202.851 222.116  0.00  0.00     0.014 A 
BRANCH  14  18
HETATM   18  O   UNK N   1     209.299 205.124 220.850  0.00  0.00    -0.358 OA
HETATM   19  H   UNK N   1     210.229 204.907 220.986  0.00  0.00     0.218 HD
ENDBRANCH  14  18
BRANCH  15  20
HETATM   20  O   UNK N   1     209.679 202.812 222.503  0.00  0.00    -0.358 OA
HETATM   21  H   UNK N   1     210.495 203.300 222.340  0.00  0.00     0.218 HD
ENDBRANCH  15  20
ENDBRANCH  11  12
ENDBRANCH   8  10
ENDBRANCH   7   8
ENDBRANCH   2   7
BRANCH   5  22
HETATM   22  O   UNK N   1     203.105 206.678 217.797  0.00  0.00    -0.390 OA
HETATM   23  H   UNK N   1     202.381 206.032 218.003  0.00  0.00     0.210 HD
ENDBRANCH   5  22
BRANCH   1  24
HETATM   24  O   UNK N   1     205.793 208.163 221.150  0.00  0.00    -0.379 OA
HETATM   25  H   UNK N   1     206.372 208.538 221.865  0.00  0.00     0.211 HD
ENDBRANCH   1  24
BRANCH   1  26
HETATM   26  C   UNK N   1     204.574 209.894 222.277  0.00  0.00     0.176 C 
HETATM   27  O   UNK N   1     203.580 210.056 222.971  0.00  0.00    -0.648 OA
BRANCH  26  28
HETATM   28  O   UNK N   1     205.675 210.643 222.499  0.00  0.00    -0.774 OA
HETATM   29  H   UNK N   1     206.549 210.237 222.583  0.00  0.00     0.167 HD
ENDBRANCH  26  28
ENDBRANCH   1  26
BRANCH   6  30
HETATM   30  O   UNK N   1     205.520 207.878 218.493  0.00  0.00    -0.393 OA
HETATM   31  H   UNK N   1     205.280 206.914 218.464  0.00  0.00     0.210 HD
ENDBRANCH   6  30
TORSDOF 11
ENDMDL
MODEL 6
REMARK VINA RESULT:      -5.7      1.736      3.198
REMARK  11 active torsions:
REMARK  status: ('A' for Active; 'I' for Inactive)
REMARK    1  A    between atoms: O_1  and  C_11 
REMARK    2  A    between atoms: O_1  and  C_17 
REMARK    3  A    between atoms: C_10  and  O_2 
REMARK    4  A    between atoms: O_3  and  C_14 
REMARK    5  A    between atoms: O_4  and  C_15 
REMARK    6  A    between atoms: O_5  and  C_16 
REMARK    7  A    between atoms: O_8  and  C_23 
REMARK    8  A    between atoms: O_9  and  C_25 
REMARK    9  A    between atoms: C_10  and  C_16 
REMARK   10  A    between atoms: C_17  and  C_18 
REMARK   11  A    between atoms: C_19  and  C_20 
ROOT
HETATM    1  C   UNK N   1     201.853 210.374 218.839  0.00  0.00     0.147 C 
HETATM    2  C   UNK N   1     203.025 208.142 218.357  0.00  0.00     0.166 C 
HETATM    3  C   UNK N   1     201.692 208.928 218.314  0.00  0.00     0.084 C 
HETATM    4  C   UNK N   1     202.928 211.094 217.991  0.00  0.00     0.083 C 
HETATM    5  C   UNK N   1     204.092 208.893 217.526  0.00  0.00     0.176 C 
HETATM    6  C   UNK N   1     204.277 210.344 218.022  0.00  0.00     0.152 C 
ENDROOT
BRANCH   2   7
HETATM    7  O   UNK N   1     202.834 206.883 217.810  0.00  0.00    -0.310 OA
BRANCH   7   8
HETATM    8  C   UNK N   1     202.887 205.729 218.527  0.00  0.00     0.283 C 
HETATM    9  O   UNK N   1     201.882 205.053 218.694  0.00  0.00    -0.260 OA
BRANCH   8  10
HETATM   10  C   UNK N   1     204.209 205.241 218.968  0.00  0.00     0.083 C 
HETATM   11  C   UNK N   1     204.622 205.378 220.244  0.00  0.00     0.017 C 
BRANCH  11  12
HETATM   12  C   UNK N   1     205.878 204.779 220.783  0.00  0.00    -0.033 A 
HETATM   13  C   UNK N   1     207.095 205.403 220.466  0.00  0.00     0.050 A 
HETATM   14  C   UNK N   1     208.307 204.935 220.985  0.00  0.00     0.099 A 
HETATM   15  C   UNK N   1     208.311 203.798 221.832  0.00  0.00     0.098 A 
HETATM   16  C   UNK N   1     207.100 203.171 222.141  0.00  0.00     0.040 A 
HETATM   17  C   UNK N   1     205.893 203.653 221.631  0.00  0.00     0.014 A 
BRANCH  14  18
HETATM   18  O   UNK N   1     209.439 205.602 220.663  0.00  0.00    -0.358 OA
HETATM   19  H   UNK N   1     210.018 206.027 221.306  0.00  0.00     0.218 HD
ENDBRANCH  14  18
BRANCH  15  20
HETATM   20  O   UNK N   1     209.446 203.291 222.361  0.00  0.00    -0.358 OA
HETATM   21  H   UNK N   1     210.319 203.687 222.252  0.00  0.00     0.218 HD
ENDBRANCH  15  20
ENDBRANCH  11  12
ENDBRANCH   8  10
ENDBRANCH   7   8
ENDBRANCH   2   7
BRANCH   5  22
HETATM   22  O   UNK N   1     205.322 208.219 217.592  0.00  0.00    -0.390 OA
HETATM   23  H   UNK N   1     206.013 208.896 217.813  0.00  0.00     0.210 HD
ENDBRANCH   5  22
BRANCH   1  24
HETATM   24  O   UNK N   1     202.268 210.365 220.187  0.00  0.00    -0.379 OA
HETATM   25  H   UNK N   1     201.544 209.957 220.731  0.00  0.00     0.211 HD
ENDBRANCH   1  24
BRANCH   1  26
HETATM   26  C   UNK N   1     200.533 211.113 218.709  0.00  0.00     0.176 C 
HETATM   27  O   UNK N   1     200.501 212.335 218.749  0.00  0.00    -0.648 OA
BRANCH  26  28
HETATM   28  O   UNK N   1     199.384 210.418 218.563  0.00  0.00    -0.774 OA
HETATM   29  H   UNK N   1     198.729 210.667 217.896  0.00  0.00     0.167 HD
ENDBRANCH  26  28
ENDBRANCH   1  26
BRANCH   6  30
HETATM   30  O   UNK N   1     204.811 210.339 219.322  0.00  0.00    -0.393 OA
HETATM   31  H   UNK N   1     205.337 209.500 219.410  0.00  0.00     0.210 HD
ENDBRANCH   6  30
TORSDOF 11
ENDMDL
MODEL 7
REMARK VINA RESULT:      -5.6      2.119      4.692
REMARK  11 active torsions:
REMARK  status: ('A' for Active; 'I' for Inactive)
REMARK    1  A    between atoms: O_1  and  C_11 
REMARK    2  A    between atoms: O_1  and  C_17 
REMARK    3  A    between atoms: C_10  and  O_2 
REMARK    4  A    between atoms: O_3  and  C_14 
REMARK    5  A    between atoms: O_4  and  C_15 
REMARK    6  A    between atoms: O_5  and  C_16 
REMARK    7  A    between atoms: O_8  and  C_23 
REMARK    8  A    between atoms: O_9  and  C_25 
REMARK    9  A    between atoms: C_10  and  C_16 
REMARK   10  A    between atoms: C_17  and  C_18 
REMARK   11  A    between atoms: C_19  and  C_20 
ROOT
HETATM    1  C   UNK N   1     200.724 208.299 221.691  0.00  0.00     0.147 C 
HETATM    2  C   UNK N   1     202.593 209.226 220.195  0.00  0.00     0.166 C 
HETATM    3  C   UNK N   1     201.907 207.956 220.756  0.00  0.00     0.084 C 
HETATM    4  C   UNK N   1     199.705 209.158 220.907  0.00  0.00     0.083 C 
HETATM    5  C   UNK N   1     201.550 210.082 219.440  0.00  0.00     0.176 C 
HETATM    6  C   UNK N   1     200.352 210.443 220.345  0.00  0.00     0.152 C 
ENDROOT
BRANCH   2   7
HETATM    7  O   UNK N   1     203.595 208.855 219.312  0.00  0.00    -0.310 OA
BRANCH   7   8
HETATM    8  C   UNK N   1     204.895 209.235 219.437  0.00  0.00     0.283 C 
HETATM    9  O   UNK N   1     205.253 210.352 219.094  0.00  0.00    -0.260 OA
BRANCH   8  10
HETATM   10  C   UNK N   1     205.825 208.322 220.133  0.00  0.00     0.083 C 
HETATM   11  C   UNK N   1     205.590 206.997 220.206  0.00  0.00     0.017 C 
BRANCH  11  12
HETATM   12  C   UNK N   1     206.558 206.007 220.765  0.00  0.00    -0.033 A 
HETATM   13  C   UNK N   1     206.049 204.800 221.267  0.00  0.00     0.050 A 
HETATM   14  C   UNK N   1     206.900 203.800 221.751  0.00  0.00     0.099 A 
HETATM   15  C   UNK N   1     208.301 204.016 221.751  0.00  0.00     0.098 A 
HETATM   16  C   UNK N   1     208.808 205.223 221.259  0.00  0.00     0.040 A 
HETATM   17  C   UNK N   1     207.952 206.210 220.765  0.00  0.00     0.014 A 
BRANCH  14  18
HETATM   18  O   UNK N   1     206.344 202.648 222.192  0.00  0.00    -0.358 OA
HETATM   19  H   UNK N   1     206.609 201.770 221.894  0.00  0.00     0.218 HD
ENDBRANCH  14  18
BRANCH  15  20
HETATM   20  O   UNK N   1     209.177 203.095 222.210  0.00  0.00    -0.358 OA
HETATM   21  H   UNK N   1     210.135 203.167 222.121  0.00  0.00     0.218 HD
ENDBRANCH  15  20
ENDBRANCH  11  12
ENDBRANCH   8  10
ENDBRANCH   7   8
ENDBRANCH   2   7
BRANCH   5  22
HETATM   22  O   UNK N   1     202.145 211.263 218.964  0.00  0.00    -0.390 OA
HETATM   23  H   UNK N   1     203.112 211.074 218.846  0.00  0.00     0.210 HD
ENDBRANCH   5  22
BRANCH   1  24
HETATM   24  O   UNK N   1     201.176 209.035 222.807  0.00  0.00    -0.379 OA
HETATM   25  H   UNK N   1     201.953 208.556 223.199  0.00  0.00     0.211 HD
ENDBRANCH   1  24
BRANCH   1  26
HETATM   26  C   UNK N   1     200.052 207.019 222.154  0.00  0.00     0.176 C 
HETATM   27  O   UNK N   1     200.022 206.730 223.342  0.00  0.00    -0.648 OA
BRANCH  26  28
HETATM   28  O   UNK N   1     199.496 206.185 221.248  0.00  0.00    -0.774 OA
HETATM   29  H   UNK N   1     199.983 205.422 220.905  0.00  0.00     0.167 HD
ENDBRANCH  26  28
ENDBRANCH   1  26
BRANCH   6  30
HETATM   30  O   UNK N   1     200.777 211.281 221.389  0.00  0.00    -0.393 OA
HETATM   31  H   UNK N   1     200.076 211.237 222.092  0.00  0.00     0.210 HD
ENDBRANCH   6  30
TORSDOF 11
ENDMDL
MODEL 8
REMARK VINA RESULT:      -5.5      2.020      3.321
REMARK  11 active torsions:
REMARK  status: ('A' for Active; 'I' for Inactive)
REMARK    1  A    between atoms: O_1  and  C_11 
REMARK    2  A    between atoms: O_1  and  C_17 
REMARK    3  A    between atoms: C_10  and  O_2 
REMARK    4  A    between atoms: O_3  and  C_14 
REMARK    5  A    between atoms: O_4  and  C_15 
REMARK    6  A    between atoms: O_5  and  C_16 
REMARK    7  A    between atoms: O_8  and  C_23 
REMARK    8  A    between atoms: O_9  and  C_25 
REMARK    9  A    between atoms: C_10  and  C_16 
REMARK   10  A    between atoms: C_17  and  C_18 
REMARK   11  A    between atoms: C_19  and  C_20 
ROOT
HETATM    1  C   UNK N   1     201.550 209.958 221.087  0.00  0.00     0.147 C 
HETATM    2  C   UNK N   1     202.426 207.590 220.624  0.00  0.00     0.166 C 
HETATM    3  C   UNK N   1     201.250 208.443 221.161  0.00  0.00     0.084 C 
HETATM    4  C   UNK N   1     201.858 210.333 219.619  0.00  0.00     0.083 C 
HETATM    5  C   UNK N   1     202.734 208.001 219.165  0.00  0.00     0.176 C 
HETATM    6  C   UNK N   1     203.038 209.511 219.055  0.00  0.00     0.152 C 
ENDROOT
BRANCH   2   7
HETATM    7  O   UNK N   1     202.071 206.250 220.649  0.00  0.00    -0.310 OA
BRANCH   7   8
HETATM    8  C   UNK N   1     202.159 205.463 221.754  0.00  0.00     0.283 C 
HETATM    9  O   UNK N   1     201.186 205.286 222.472  0.00  0.00    -0.260 OA
BRANCH   8  10
HETATM   10  C   UNK N   1     203.411 204.713 221.978  0.00  0.00     0.083 C 
HETATM   11  C   UNK N   1     204.505 204.923 221.219  0.00  0.00     0.017 C 
BRANCH  11  12
HETATM   12  C   UNK N   1     205.838 204.307 221.486  0.00  0.00    -0.033 A 
HETATM   13  C   UNK N   1     206.979 204.975 221.018  0.00  0.00     0.050 A 
HETATM   14  C   UNK N   1     208.265 204.490 221.282  0.00  0.00     0.099 A 
HETATM   15  C   UNK N   1     208.418 203.290 222.022  0.00  0.00     0.098 A 
HETATM   16  C   UNK N   1     207.281 202.618 222.481  0.00  0.00     0.040 A 
HETATM   17  C   UNK N   1     206.002 203.117 222.224  0.00  0.00     0.014 A 
BRANCH  14  18
HETATM   18  O   UNK N   1     209.321 205.201 220.829  0.00  0.00    -0.358 OA
HETATM   19  H   UNK N   1     210.118 205.377 221.343  0.00  0.00     0.218 HD
ENDBRANCH  14  18
BRANCH  15  20
HETATM   20  O   UNK N   1     209.629 202.763 222.306  0.00  0.00    -0.358 OA
HETATM   21  H   UNK N   1     210.419 203.287 222.490  0.00  0.00     0.218 HD
ENDBRANCH  15  20
ENDBRANCH  11  12
ENDBRANCH   8  10
ENDBRANCH   7   8
ENDBRANCH   2   7
BRANCH   5  22
HETATM   22  O   UNK N   1     203.830 207.270 218.677  0.00  0.00    -0.390 OA
HETATM   23  H   UNK N   1     203.506 206.351 218.487  0.00  0.00     0.210 HD
ENDBRANCH   5  22
BRANCH   1  24
HETATM   24  O   UNK N   1     202.670 210.277 221.884  0.00  0.00    -0.379 OA
HETATM   25  H   UNK N   1     202.343 210.675 222.733  0.00  0.00     0.211 HD
ENDBRANCH   1  24
BRANCH   1  26
HETATM   26  C   UNK N   1     200.339 210.741 221.562  0.00  0.00     0.176 C 
HETATM   27  O   UNK N   1     200.031 211.793 221.020  0.00  0.00    -0.648 OA
BRANCH  26  28
HETATM   28  O   UNK N   1     199.604 210.281 222.598  0.00  0.00    -0.774 OA
HETATM   29  H   UNK N   1     199.923 209.558 223.156  0.00  0.00     0.167 HD
ENDBRANCH  26  28
ENDBRANCH   1  26
BRANCH   6  30
HETATM   30  O   UNK N   1     204.226 209.811 219.743  0.00  0.00    -0.393 OA
HETATM   31  H   UNK N   1     204.955 209.327 219.274  0.00  0.00     0.210 HD
ENDBRANCH   6  30
TORSDOF 11
ENDMDL
MODEL 9
REMARK VINA RESULT:      -5.2      2.046      6.769
REMARK  11 active torsions:
REMARK  status: ('A' for Active; 'I' for Inactive)
REMARK    1  A    between atoms: O_1  and  C_11 
REMARK    2  A    between atoms: O_1  and  C_17 
REMARK    3  A    between atoms: C_10  and  O_2 
REMARK    4  A    between atoms: O_3  and  C_14 
REMARK    5  A    between atoms: O_4  and  C_15 
REMARK    6  A    between atoms: O_5  and  C_16 
REMARK    7  A    between atoms: O_8  and  C_23 
REMARK    8  A    between atoms: O_9  and  C_25 
REMARK    9  A    between atoms: C_10  and  C_16 
REMARK   10  A    between atoms: C_17  and  C_18 
REMARK   11  A    between atoms: C_19  and  C_20 
ROOT
HETATM    1  C   UNK N   1     205.901 206.265 220.755  0.00  0.00     0.147 C 
HETATM    2  C   UNK N   1     204.129 207.301 219.214  0.00  0.00     0.166 C 
HETATM    3  C   UNK N   1     205.453 206.502 219.294  0.00  0.00     0.084 C 
HETATM    4  C   UNK N   1     204.776 205.514 221.504  0.00  0.00     0.083 C 
HETATM    5  C   UNK N   1     203.026 206.546 219.993  0.00  0.00     0.176 C 
HETATM    6  C   UNK N   1     203.441 206.291 221.458  0.00  0.00     0.152 C 
ENDROOT
BRANCH   2   7
HETATM    7  O   UNK N   1     203.742 207.419 217.888  0.00  0.00    -0.310 OA
BRANCH   7   8
HETATM    8  C   UNK N   1     203.231 208.557 217.347  0.00  0.00     0.283 C 
HETATM    9  O   UNK N   1     202.039 208.643 217.088  0.00  0.00    -0.260 OA
BRANCH   8  10
HETATM   10  C   UNK N   1     204.119 209.731 217.221  0.00  0.00     0.083 C 
HETATM   11  C   UNK N   1     204.062 210.755 218.095  0.00  0.00     0.017 C 
BRANCH  11  12
HETATM   12  C   UNK N   1     205.026 211.895 218.109  0.00  0.00    -0.033 A 
HETATM   13  C   UNK N   1     206.373 211.615 218.381  0.00  0.00     0.050 A 
HETATM   14  C   UNK N   1     207.344 212.623 218.352  0.00  0.00     0.099 A 
HETATM   15  C   UNK N   1     206.957 213.955 218.061  0.00  0.00     0.098 A 
HETATM   16  C   UNK N   1     205.612 214.236 217.799  0.00  0.00     0.040 A 
HETATM   17  C   UNK N   1     204.653 213.222 217.816  0.00  0.00     0.014 A 
BRANCH  14  18
HETATM   18  O   UNK N   1     208.629 212.278 218.592  0.00  0.00    -0.358 OA
HETATM   19  H   UNK N   1     208.901 211.610 219.232  0.00  0.00     0.218 HD
ENDBRANCH  14  18
BRANCH  15  20
HETATM   20  O   UNK N   1     207.841 214.976 218.023  0.00  0.00    -0.358 OA
HETATM   21  H   UNK N   1     208.771 214.880 217.781  0.00  0.00     0.218 HD
ENDBRANCH  15  20
ENDBRANCH  11  12
ENDBRANCH   8  10
ENDBRANCH   7   8
ENDBRANCH   2   7
BRANCH   5  22
HETATM   22  O   UNK N   1     201.828 207.280 219.971  0.00  0.00    -0.390 OA
HETATM   23  H   UNK N   1     201.085 206.627 220.047  0.00  0.00     0.210 HD
ENDBRANCH   5  22
BRANCH   1  24
HETATM   24  O   UNK N   1     206.138 207.495 221.403  0.00  0.00    -0.379 OA
HETATM   25  H   UNK N   1     206.677 208.067 220.796  0.00  0.00     0.211 HD
ENDBRANCH   1  24
BRANCH   1  26
HETATM   26  C   UNK N   1     207.164 205.422 220.770  0.00  0.00     0.176 C 
HETATM   27  O   UNK N   1     207.168 204.323 221.307  0.00  0.00    -0.648 OA
BRANCH  26  28
HETATM   28  O   UNK N   1     208.294 205.893 220.198  0.00  0.00    -0.774 OA
HETATM   29  H   UNK N   1     208.755 206.662 220.560  0.00  0.00     0.167 HD
ENDBRANCH  26  28
ENDBRANCH   1  26
BRANCH   6  30
HETATM   30  O   UNK N   1     203.555 207.513 222.143  0.00  0.00    -0.393 OA
HETATM   31  H   UNK N   1     204.213 208.060 221.638  0.00  0.00     0.210 HD
ENDBRANCH   6  30
TORSDOF 11
ENDMDL
