MODEL 1
REMARK VINA RESULT:      -5.2      0.000      0.000
REMARK  14 active torsions:
REMARK  status: ('A' for Active; 'I' for Inactive)
REMARK    1  A    between atoms: O_1  and  C_15 
REMARK    2  A    between atoms: O_1  and  C_18 
REMARK    3  A    between atoms: O_4  and  C_19 
REMARK    4  A    between atoms: O_4  and  C_27 
REMARK    5  A    between atoms: O_5  and  C_16 
REMARK    6  A    between atoms: O_6  and  C_17 
REMARK    7  A    between atoms: O_7  and  C_20 
REMARK    8  A    between atoms: O_8  and  C_22 
REMARK    9  A    between atoms: O_9  and  C_23 
REMARK   10  A    between atoms: O_10  and  C_25 
REMARK   11  A    between atoms: O_12  and  C_33 
REMARK   12  A    between atoms: O_14  and  C_41 
REMARK   13  A    between atoms: C_21  and  C_25 
REMARK   14  A    between atoms: C_32  and  C_36 
ROOT
HETATM    1  O   UNK N   1     206.689 205.151 219.706  0.00  0.00    -0.348 OA
HETATM    2  C   UNK N   1     205.112 203.881 221.061  0.00  0.00     0.211 C 
HETATM    3  C   UNK N   1     206.203 203.722 222.151  0.00  0.00     0.183 C 
HETATM    4  C   UNK N   1     207.605 203.845 221.512  0.00  0.00     0.180 C 
HETATM    5  C   UNK N   1     205.389 205.179 220.272  0.00  0.00     0.298 C 
HETATM    6  C   UNK N   1     207.687 205.158 220.705  0.00  0.00     0.179 C 
ENDROOT
BRANCH   5   7
HETATM    7  O   UNK N   1     204.489 205.289 219.227  0.00  0.00    -0.318 OA
BRANCH   7   8
HETATM    8  C   UNK N   1     203.870 206.462 218.949  0.00  0.00     0.077 A 
HETATM    9  C   UNK N   1     204.592 207.668 218.902  0.00  0.00     0.074 A 
HETATM   10  C   UNK N   1     203.946 208.855 218.555  0.00  0.00     0.089 A 
HETATM   11  O   UNK N   1     204.664 210.009 218.475  0.00  0.00    -0.340 OA
HETATM   12  C   UNK N   1     202.569 208.860 218.264  0.00  0.00     0.076 A 
HETATM   13  C   UNK N   1     204.232 211.065 217.689  0.00  0.00     0.169 C 
HETATM   14  C   UNK N   1     202.771 211.415 218.020  0.00  0.00     0.121 C 
HETATM   15  C   UNK N   1     201.938 210.164 217.915  0.00  0.00     0.167 C 
HETATM   16  O   UNK N   1     200.762 210.240 217.604  0.00  0.00    -0.292 OA
HETATM   17  C   UNK N   1     201.840 207.650 218.312  0.00  0.00     0.085 A 
HETATM   18  C   UNK N   1     202.502 206.462 218.664  0.00  0.00     0.074 A 
BRANCH  13  19
HETATM   19  C   UNK N   1     205.157 212.249 217.848  0.00  0.00    -0.028 A 
HETATM   20  C   UNK N   1     206.539 212.045 217.989  0.00  0.00     0.012 A 
HETATM   21  C   UNK N   1     207.404 213.134 218.130  0.00  0.00     0.037 A 
HETATM   22  C   UNK N   1     206.900 214.438 218.128  0.00  0.00     0.065 A 
HETATM   23  C   UNK N   1     205.520 214.650 217.992  0.00  0.00     0.037 A 
HETATM   24  C   UNK N   1     204.651 213.562 217.858  0.00  0.00     0.012 A 
BRANCH  22  25
HETATM   25  O   UNK N   1     207.747 215.480 218.255  0.00  0.00    -0.361 OA
HETATM   26  H   UNK N   1     208.152 215.705 219.105  0.00  0.00     0.217 HD
ENDBRANCH  22  25
ENDBRANCH  13  19
BRANCH  17  27
HETATM   27  O   UNK N   1     200.526 207.628 218.016  0.00  0.00    -0.360 OA
HETATM   28  H   UNK N   1     199.928 206.967 218.392  0.00  0.00     0.217 HD
ENDBRANCH  17  27
ENDBRANCH   7   8
ENDBRANCH   5   7
BRANCH   2  29
HETATM   29  O   UNK N   1     203.824 203.994 221.651  0.00  0.00    -0.346 OA
BRANCH  29  30
HETATM   30  C   UNK N   1     203.787 204.934 222.714  0.00  0.00     0.292 C 
HETATM   31  O   UNK N   1     203.306 204.340 223.911  0.00  0.00    -0.351 OA
HETATM   32  C   UNK N   1     201.968 203.875 223.783  0.00  0.00     0.152 C 
HETATM   33  C   UNK N   1     200.992 205.035 223.451  0.00  0.00     0.178 C 
HETATM   34  C   UNK N   1     201.583 203.216 225.109  0.00  0.00     0.042 C 
HETATM   35  C   UNK N   1     201.456 205.735 222.161  0.00  0.00     0.183 C 
HETATM   36  C   UNK N   1     202.927 206.157 222.312  0.00  0.00     0.204 C 
BRANCH  33  37
HETATM   37  O   UNK N   1     199.688 204.543 223.263  0.00  0.00    -0.390 OA
HETATM   38  H   UNK N   1     199.758 203.561 223.136  0.00  0.00     0.210 HD
ENDBRANCH  33  37
BRANCH  35  39
HETATM   39  O   UNK N   1     200.673 206.870 221.885  0.00  0.00    -0.390 OA
HETATM   40  H   UNK N   1     201.001 207.603 222.468  0.00  0.00     0.210 HD
ENDBRANCH  35  39
BRANCH  36  41
HETATM   41  O   UNK N   1     203.058 207.209 223.241  0.00  0.00    -0.388 OA
HETATM   42  H   UNK N   1     203.796 207.806 222.956  0.00  0.00     0.210 HD
ENDBRANCH  36  41
ENDBRANCH  29  30
ENDBRANCH   2  29
BRANCH   6  43
HETATM   43  C   UNK N   1     209.051 205.304 220.015  0.00  0.00     0.198 C 
BRANCH  43  44
HETATM   44  O   UNK N   1     209.836 206.263 220.673  0.00  0.00    -0.398 OA
HETATM   45  H   UNK N   1     210.489 206.607 220.009  0.00  0.00     0.209 HD
ENDBRANCH  43  44
ENDBRANCH   6  43
BRANCH   3  46
HETATM   46  O   UNK N   1     206.074 202.477 222.789  0.00  0.00    -0.390 OA
HETATM   47  H   UNK N   1     205.113 202.233 222.775  0.00  0.00     0.210 HD
ENDBRANCH   3  46
BRANCH   4  48
HETATM   48  O   UNK N   1     208.611 203.787 222.493  0.00  0.00    -0.390 OA
HETATM   49  H   UNK N   1     208.659 204.679 222.928  0.00  0.00     0.210 HD
ENDBRANCH   4  48
TORSDOF 14
ENDMDL
MODEL 2
REMARK VINA RESULT:      -4.9      2.192      8.102
REMARK  14 active torsions:
REMARK  status: ('A' for Active; 'I' for Inactive)
REMARK    1  A    between atoms: O_1  and  C_15 
REMARK    2  A    between atoms: O_1  and  C_18 
REMARK    3  A    between atoms: O_4  and  C_19 
REMARK    4  A    between atoms: O_4  and  C_27 
REMARK    5  A    between atoms: O_5  and  C_16 
REMARK    6  A    between atoms: O_6  and  C_17 
REMARK    7  A    between atoms: O_7  and  C_20 
REMARK    8  A    between atoms: O_8  and  C_22 
REMARK    9  A    between atoms: O_9  and  C_23 
REMARK   10  A    between atoms: O_10  and  C_25 
REMARK   11  A    between atoms: O_12  and  C_33 
REMARK   12  A    between atoms: O_14  and  C_41 
REMARK   13  A    between atoms: C_21  and  C_25 
REMARK   14  A    between atoms: C_32  and  C_36 
ROOT
HETATM    1  O   UNK N   1     207.183 210.624 219.724  0.00  0.00    -0.348 OA
HETATM    2  C   UNK N   1     204.796 210.304 219.358  0.00  0.00     0.211 C 
HETATM    3  C   UNK N   1     204.850 211.347 218.211  0.00  0.00     0.183 C 
HETATM    4  C   UNK N   1     206.043 212.306 218.429  0.00  0.00     0.180 C 
HETATM    5  C   UNK N   1     206.185 209.644 219.489  0.00  0.00     0.298 C 
HETATM    6  C   UNK N   1     207.335 211.482 218.613  0.00  0.00     0.179 C 
ENDROOT
BRANCH   5   7
HETATM    7  O   UNK N   1     206.191 208.785 220.574  0.00  0.00    -0.318 OA
BRANCH   7   8
HETATM    8  C   UNK N   1     205.720 207.518 220.473  0.00  0.00     0.077 A 
HETATM    9  C   UNK N   1     204.927 206.959 221.490  0.00  0.00     0.074 A 
HETATM   10  C   UNK N   1     204.402 205.674 221.339  0.00  0.00     0.089 A 
HETATM   11  O   UNK N   1     203.602 205.160 222.313  0.00  0.00    -0.340 OA
HETATM   12  C   UNK N   1     204.674 204.924 220.181  0.00  0.00     0.076 A 
HETATM   13  C   UNK N   1     202.683 204.162 222.029  0.00  0.00     0.169 C 
HETATM   14  C   UNK N   1     203.368 203.001 221.288  0.00  0.00     0.121 C 
HETATM   15  C   UNK N   1     204.096 203.554 220.090  0.00  0.00     0.167 C 
HETATM   16  O   UNK N   1     204.247 202.862 219.097  0.00  0.00    -0.292 OA
HETATM   17  C   UNK N   1     205.474 205.482 219.158  0.00  0.00     0.085 A 
HETATM   18  C   UNK N   1     205.996 206.776 219.322  0.00  0.00     0.074 A 
BRANCH  13  19
HETATM   19  C   UNK N   1     201.993 203.709 223.294  0.00  0.00    -0.028 A 
HETATM   20  C   UNK N   1     202.749 203.185 224.356  0.00  0.00     0.012 A 
HETATM   21  C   UNK N   1     202.122 202.769 225.533  0.00  0.00     0.037 A 
HETATM   22  C   UNK N   1     200.734 202.874 225.666  0.00  0.00     0.065 A 
HETATM   23  C   UNK N   1     199.971 203.392 224.608  0.00  0.00     0.037 A 
HETATM   24  C   UNK N   1     200.596 203.803 223.425  0.00  0.00     0.012 A 
BRANCH  22  25
HETATM   25  O   UNK N   1     200.142 202.478 226.811  0.00  0.00    -0.361 OA
HETATM   26  H   UNK N   1     199.199 202.620 226.972  0.00  0.00     0.217 HD
ENDBRANCH  22  25
ENDBRANCH  13  19
BRANCH  17  27
HETATM   27  O   UNK N   1     205.729 204.789 218.031  0.00  0.00    -0.360 OA
HETATM   28  H   UNK N   1     206.622 204.717 217.665  0.00  0.00     0.217 HD
ENDBRANCH  17  27
ENDBRANCH   7   8
ENDBRANCH   5   7
BRANCH   2  29
HETATM   29  O   UNK N   1     203.851 209.284 219.066  0.00  0.00    -0.346 OA
BRANCH  29  30
HETATM   30  C   UNK N   1     202.513 209.759 219.061  0.00  0.00     0.292 C 
HETATM   31  O   UNK N   1     202.150 210.291 220.327  0.00  0.00    -0.351 OA
HETATM   32  C   UNK N   1     202.189 209.309 221.355  0.00  0.00     0.152 C 
HETATM   33  C   UNK N   1     201.199 208.148 221.072  0.00  0.00     0.178 C 
HETATM   34  C   UNK N   1     201.831 210.008 222.669  0.00  0.00     0.042 C 
HETATM   35  C   UNK N   1     201.529 207.523 219.705  0.00  0.00     0.183 C 
HETATM   36  C   UNK N   1     201.549 208.626 218.633  0.00  0.00     0.204 C 
BRANCH  33  37
HETATM   37  O   UNK N   1     201.303 207.159 222.066  0.00  0.00    -0.390 OA
HETATM   38  H   UNK N   1     201.501 207.620 222.923  0.00  0.00     0.210 HD
ENDBRANCH  33  37
BRANCH  35  39
HETATM   39  O   UNK N   1     200.584 206.546 219.348  0.00  0.00    -0.390 OA
HETATM   40  H   UNK N   1     200.349 206.047 220.174  0.00  0.00     0.210 HD
ENDBRANCH  35  39
BRANCH  36  41
HETATM   41  O   UNK N   1     200.250 209.117 218.389  0.00  0.00    -0.388 OA
HETATM   42  H   UNK N   1     200.078 209.892 218.982  0.00  0.00     0.210 HD
ENDBRANCH  36  41
ENDBRANCH  29  30
ENDBRANCH   2  29
BRANCH   6  43
HETATM   43  C   UNK N   1     208.544 212.393 218.875  0.00  0.00     0.198 C 
BRANCH  43  44
HETATM   44  O   UNK N   1     209.576 211.675 219.498  0.00  0.00    -0.398 OA
HETATM   45  H   UNK N   1     210.213 211.408 218.785  0.00  0.00     0.209 HD
ENDBRANCH  43  44
ENDBRANCH   6  43
BRANCH   3  46
HETATM   46  O   UNK N   1     203.650 212.077 218.162  0.00  0.00    -0.390 OA
HETATM   47  H   UNK N   1     203.884 213.021 217.971  0.00  0.00     0.210 HD
ENDBRANCH   3  46
BRANCH   4  48
HETATM   48  O   UNK N   1     206.162 213.210 217.358  0.00  0.00    -0.390 OA
HETATM   49  H   UNK N   1     205.925 212.722 216.526  0.00  0.00     0.210 HD
ENDBRANCH   4  48
TORSDOF 14
ENDMDL
