MODEL 1
REMARK VINA RESULT:      -5.3      0.000      0.000
REMARK  5 active torsions:
REMARK  status: ('A' for Active; 'I' for Inactive)
REMARK    1  A    between atoms: O_1  and  C_6 
REMARK    2  A    between atoms: O_2  and  C_9 
REMARK    3  A    between atoms: O_3  and  C_14 
REMARK    4  A    between atoms: C_5  and  C_11 
REMARK    5  A    between atoms: C_12  and  C_14 
ROOT
HETATM    1  C   UNK N   1     206.142 207.565 220.455  0.00  0.00    -0.033 A 
HETATM    2  C   UNK N   1     204.473 209.191 221.184  0.00  0.00     0.102 A 
HETATM    3  C   UNK N   1     205.572 208.368 221.465  0.00  0.00     0.051 A 
HETATM    4  C   UNK N   1     205.593 207.610 219.163  0.00  0.00     0.014 A 
HETATM    5  C   UNK N   1     203.929 209.216 219.894  0.00  0.00     0.099 A 
HETATM    6  C   UNK N   1     204.490 208.424 218.886  0.00  0.00     0.040 A 
ENDROOT
BRANCH   1   7
HETATM    7  C   UNK N   1     207.304 206.665 220.704  0.00  0.00     0.018 C 
HETATM    8  C   UNK N   1     207.179 205.373 221.071  0.00  0.00     0.082 C 
BRANCH   8   9
HETATM    9  C   UNK N   1     208.353 204.502 221.291  0.00  0.00     0.165 C 
HETATM   10  O   UNK N   1     208.321 203.600 222.114  0.00  0.00    -0.647 OA
BRANCH   9  11
HETATM   11  O   UNK N   1     209.473 204.717 220.569  0.00  0.00    -0.773 OA
HETATM   12  H   UNK N   1     209.525 205.436 219.924  0.00  0.00     0.167 HD
ENDBRANCH   9  11
ENDBRANCH   8   9
ENDBRANCH   1   7
BRANCH   2  13
HETATM   13  O   UNK N   1     203.941 209.956 222.159  0.00  0.00    -0.353 OA
HETATM   14  C   UNK N   1     203.103 209.420 223.110  0.00  0.00     0.210 C 
ENDBRANCH   2  13
BRANCH   5  15
HETATM   15  O   UNK N   1     202.861 210.002 219.637  0.00  0.00    -0.358 OA
HETATM   16  H   UNK N   1     202.351 209.915 218.820  0.00  0.00     0.218 HD
ENDBRANCH   5  15
TORSDOF 5
ENDMDL
MODEL 2
REMARK VINA RESULT:      -5.1      1.639      6.077
REMARK  5 active torsions:
REMARK  status: ('A' for Active; 'I' for Inactive)
REMARK    1  A    between atoms: O_1  and  C_6 
REMARK    2  A    between atoms: O_2  and  C_9 
REMARK    3  A    between atoms: O_3  and  C_14 
REMARK    4  A    between atoms: C_5  and  C_11 
REMARK    5  A    between atoms: C_12  and  C_14 
ROOT
HETATM    1  C   UNK N   1     206.487 205.974 220.834  0.00  0.00    -0.033 A 
HETATM    2  C   UNK N   1     206.932 203.760 221.761  0.00  0.00     0.102 A 
HETATM    3  C   UNK N   1     206.027 204.723 221.296  0.00  0.00     0.051 A 
HETATM    4  C   UNK N   1     207.868 206.234 220.842  0.00  0.00     0.014 A 
HETATM    5  C   UNK N   1     208.305 204.037 221.774  0.00  0.00     0.099 A 
HETATM    6  C   UNK N   1     208.769 205.275 221.315  0.00  0.00     0.040 A 
ENDROOT
BRANCH   1   7
HETATM    7  C   UNK N   1     205.565 207.037 220.340  0.00  0.00     0.018 C 
HETATM    8  C   UNK N   1     205.682 208.338 220.676  0.00  0.00     0.082 C 
BRANCH   8   9
HETATM    9  C   UNK N   1     204.762 209.370 220.152  0.00  0.00     0.165 C 
HETATM   10  O   UNK N   1     203.665 209.550 220.659  0.00  0.00    -0.647 OA
BRANCH   9  11
HETATM   11  O   UNK N   1     205.148 210.117 219.096  0.00  0.00    -0.773 OA
HETATM   12  H   UNK N   1     206.083 210.235 218.880  0.00  0.00     0.167 HD
ENDBRANCH   9  11
ENDBRANCH   8   9
ENDBRANCH   1   7
BRANCH   2  13
HETATM   13  O   UNK N   1     206.478 202.568 222.196  0.00  0.00    -0.353 OA
HETATM   14  C   UNK N   1     205.635 202.477 223.281  0.00  0.00     0.210 C 
ENDBRANCH   2  13
BRANCH   5  15
HETATM   15  O   UNK N   1     209.168 203.108 222.237  0.00  0.00    -0.358 OA
HETATM   16  H   UNK N   1     210.124 203.203 222.129  0.00  0.00     0.218 HD
ENDBRANCH   5  15
TORSDOF 5
ENDMDL
MODEL 3
REMARK VINA RESULT:      -4.9      1.905      2.294
REMARK  5 active torsions:
REMARK  status: ('A' for Active; 'I' for Inactive)
REMARK    1  A    between atoms: O_1  and  C_6 
REMARK    2  A    between atoms: O_2  and  C_9 
REMARK    3  A    between atoms: O_3  and  C_14 
REMARK    4  A    between atoms: C_5  and  C_11 
REMARK    5  A    between atoms: C_12  and  C_14 
ROOT
HETATM    1  C   UNK N   1     205.743 207.413 220.237  0.00  0.00    -0.033 A 
HETATM    2  C   UNK N   1     205.914 209.793 219.719  0.00  0.00     0.102 A 
HETATM    3  C   UNK N   1     206.369 208.664 220.414  0.00  0.00     0.051 A 
HETATM    4  C   UNK N   1     204.660 207.316 219.347  0.00  0.00     0.014 A 
HETATM    5  C   UNK N   1     204.826 209.684 218.845  0.00  0.00     0.099 A 
HETATM    6  C   UNK N   1     204.200 208.445 218.662  0.00  0.00     0.040 A 
ENDROOT
BRANCH   1   7
HETATM    7  C   UNK N   1     206.182 206.185 220.961  0.00  0.00     0.018 C 
HETATM    8  C   UNK N   1     207.325 205.526 220.682  0.00  0.00     0.082 C 
BRANCH   8   9
HETATM    9  C   UNK N   1     207.740 204.322 221.431  0.00  0.00     0.165 C 
HETATM   10  O   UNK N   1     206.912 203.540 221.873  0.00  0.00    -0.647 OA
BRANCH   9  11
HETATM   11  O   UNK N   1     209.056 204.093 221.628  0.00  0.00    -0.773 OA
HETATM   12  H   UNK N   1     209.726 204.497 221.059  0.00  0.00     0.167 HD
ENDBRANCH   9  11
ENDBRANCH   8   9
ENDBRANCH   1   7
BRANCH   2  13
HETATM   13  O   UNK N   1     206.525 210.981 219.895  0.00  0.00    -0.353 OA
HETATM   14  C   UNK N   1     207.510 211.412 219.037  0.00  0.00     0.210 C 
ENDBRANCH   2  13
BRANCH   5  15
HETATM   15  O   UNK N   1     204.385 210.780 218.189  0.00  0.00    -0.358 OA
HETATM   16  H   UNK N   1     204.151 210.752 217.251  0.00  0.00     0.218 HD
ENDBRANCH   5  15
TORSDOF 5
ENDMDL
MODEL 4
REMARK VINA RESULT:      -4.8     15.219     17.102
REMARK  5 active torsions:
REMARK  status: ('A' for Active; 'I' for Inactive)
REMARK    1  A    between atoms: O_1  and  C_6 
REMARK    2  A    between atoms: O_2  and  C_9 
REMARK    3  A    between atoms: O_3  and  C_14 
REMARK    4  A    between atoms: C_5  and  C_11 
REMARK    5  A    between atoms: C_12  and  C_14 
ROOT
HETATM    1  C   UNK N   1     221.075 212.937 217.943  0.00  0.00    -0.033 A 
HETATM    2  C   UNK N   1     219.934 210.784 218.094  0.00  0.00     0.102 A 
HETATM    3  C   UNK N   1     220.318 211.907 217.348  0.00  0.00     0.051 A 
HETATM    4  C   UNK N   1     221.443 212.815 219.294  0.00  0.00     0.014 A 
HETATM    5  C   UNK N   1     220.297 210.682 219.442  0.00  0.00     0.099 A 
HETATM    6  C   UNK N   1     221.050 211.700 220.040  0.00  0.00     0.040 A 
ENDROOT
BRANCH   1   7
HETATM    7  C   UNK N   1     221.500 214.157 217.197  0.00  0.00     0.018 C 
HETATM    8  C   UNK N   1     221.973 215.269 217.797  0.00  0.00     0.082 C 
BRANCH   8   9
HETATM    9  C   UNK N   1     222.404 216.453 217.026  0.00  0.00     0.165 C 
HETATM   10  O   UNK N   1     223.589 216.699 216.861  0.00  0.00    -0.647 OA
BRANCH   9  11
HETATM   11  O   UNK N   1     221.467 217.271 216.501  0.00  0.00    -0.773 OA
HETATM   12  H   UNK N   1     221.580 217.670 215.628  0.00  0.00     0.167 HD
ENDBRANCH   9  11
ENDBRANCH   8   9
ENDBRANCH   1   7
BRANCH   2  13
HETATM   13  O   UNK N   1     219.214 209.806 217.510  0.00  0.00    -0.353 OA
HETATM   14  C   UNK N   1     217.858 209.937 217.314  0.00  0.00     0.210 C 
ENDBRANCH   2  13
BRANCH   5  15
HETATM   15  O   UNK N   1     219.910 209.603 220.156  0.00  0.00    -0.358 OA
HETATM   16  H   UNK N   1     218.977 209.375 220.268  0.00  0.00     0.218 HD
ENDBRANCH   5  15
TORSDOF 5
ENDMDL
MODEL 5
REMARK VINA RESULT:      -4.5     21.981     22.825
REMARK  5 active torsions:
REMARK  status: ('A' for Active; 'I' for Inactive)
REMARK    1  A    between atoms: O_1  and  C_6 
REMARK    2  A    between atoms: O_2  and  C_9 
REMARK    3  A    between atoms: O_3  and  C_14 
REMARK    4  A    between atoms: C_5  and  C_11 
REMARK    5  A    between atoms: C_12  and  C_14 
ROOT
HETATM    1  C   UNK N   1     220.055 211.128 237.744  0.00  0.00    -0.033 A 
HETATM    2  C   UNK N   1     221.418 211.157 235.719  0.00  0.00     0.102 A 
HETATM    3  C   UNK N   1     220.630 211.828 236.664  0.00  0.00     0.051 A 
HETATM    4  C   UNK N   1     220.291 209.748 237.860  0.00  0.00     0.014 A 
HETATM    5  C   UNK N   1     221.634 209.779 235.840  0.00  0.00     0.099 A 
HETATM    6  C   UNK N   1     221.068 209.077 236.911  0.00  0.00     0.040 A 
ENDROOT
BRANCH   1   7
HETATM    7  C   UNK N   1     219.202 211.793 238.771  0.00  0.00     0.018 C 
HETATM    8  C   UNK N   1     217.908 211.475 238.982  0.00  0.00     0.082 C 
BRANCH   8   9
HETATM    9  C   UNK N   1     217.095 212.141 240.021  0.00  0.00     0.165 C 
HETATM   10  O   UNK N   1     216.426 211.490 240.809  0.00  0.00    -0.647 OA
BRANCH   9  11
HETATM   11  O   UNK N   1     217.097 213.489 240.091  0.00  0.00    -0.773 OA
HETATM   12  H   UNK N   1     217.860 213.973 240.439  0.00  0.00     0.167 HD
ENDBRANCH   9  11
ENDBRANCH   8   9
ENDBRANCH   1   7
BRANCH   2  13
HETATM   13  O   UNK N   1     221.964 211.840 234.693  0.00  0.00    -0.353 OA
HETATM   14  C   UNK N   1     222.556 213.067 234.888  0.00  0.00     0.210 C 
ENDBRANCH   2  13
BRANCH   5  15
HETATM   15  O   UNK N   1     222.382 209.138 234.917  0.00  0.00    -0.358 OA
HETATM   16  H   UNK N   1     222.162 209.164 233.976  0.00  0.00     0.218 HD
ENDBRANCH   5  15
TORSDOF 5
ENDMDL
MODEL 6
REMARK VINA RESULT:      -4.2     21.945     22.891
REMARK  5 active torsions:
REMARK  status: ('A' for Active; 'I' for Inactive)
REMARK    1  A    between atoms: O_1  and  C_6 
REMARK    2  A    between atoms: O_2  and  C_9 
REMARK    3  A    between atoms: O_3  and  C_14 
REMARK    4  A    between atoms: C_5  and  C_11 
REMARK    5  A    between atoms: C_12  and  C_14 
ROOT
HETATM    1  C   UNK N   1     220.307 210.670 236.922  0.00  0.00    -0.033 A 
HETATM    2  C   UNK N   1     222.423 211.212 235.832  0.00  0.00     0.102 A 
HETATM    3  C   UNK N   1     221.287 211.613 236.547  0.00  0.00     0.051 A 
HETATM    4  C   UNK N   1     220.495 209.322 236.574  0.00  0.00     0.014 A 
HETATM    5  C   UNK N   1     222.591 209.867 235.480  0.00  0.00     0.099 A 
HETATM    6  C   UNK N   1     221.624 208.925 235.851  0.00  0.00     0.040 A 
ENDROOT
BRANCH   1   7
HETATM    7  C   UNK N   1     219.075 211.046 237.674  0.00  0.00     0.018 C 
HETATM    8  C   UNK N   1     218.979 210.994 239.018  0.00  0.00     0.082 C 
BRANCH   8   9
HETATM    9  C   UNK N   1     217.749 211.393 239.734  0.00  0.00     0.165 C 
HETATM   10  O   UNK N   1     217.228 210.649 240.551  0.00  0.00    -0.647 OA
BRANCH   9  11
HETATM   11  O   UNK N   1     217.199 212.597 239.471  0.00  0.00    -0.773 OA
HETATM   12  H   UNK N   1     217.465 213.388 239.960  0.00  0.00     0.167 HD
ENDBRANCH   9  11
ENDBRANCH   8   9
ENDBRANCH   1   7
BRANCH   2  13
HETATM   13  O   UNK N   1     223.352 212.124 235.484  0.00  0.00    -0.353 OA
HETATM   14  C   UNK N   1     223.121 213.028 234.471  0.00  0.00     0.210 C 
ENDBRANCH   2  13
BRANCH   5  15
HETATM   15  O   UNK N   1     223.683 209.493 234.780  0.00  0.00    -0.358 OA
HETATM   16  H   UNK N   1     223.746 209.630 233.824  0.00  0.00     0.218 HD
ENDBRANCH   5  15
TORSDOF 5
ENDMDL
MODEL 7
REMARK VINA RESULT:      -4.2     21.575     22.880
REMARK  5 active torsions:
REMARK  status: ('A' for Active; 'I' for Inactive)
REMARK    1  A    between atoms: O_1  and  C_6 
REMARK    2  A    between atoms: O_2  and  C_9 
REMARK    3  A    between atoms: O_3  and  C_14 
REMARK    4  A    between atoms: C_5  and  C_11 
REMARK    5  A    between atoms: C_12  and  C_14 
ROOT
HETATM    1  C   UNK N   1     221.683 212.485 236.239  0.00  0.00    -0.033 A 
HETATM    2  C   UNK N   1     223.225 212.499 234.346  0.00  0.00     0.102 A 
HETATM    3  C   UNK N   1     222.330 211.815 235.180  0.00  0.00     0.051 A 
HETATM    4  C   UNK N   1     221.947 213.851 236.439  0.00  0.00     0.014 A 
HETATM    5  C   UNK N   1     223.488 213.857 234.566  0.00  0.00     0.099 A 
HETATM    6  C   UNK N   1     222.849 214.530 235.613  0.00  0.00     0.040 A 
ENDROOT
BRANCH   1   7
HETATM    7  C   UNK N   1     220.730 211.802 237.160  0.00  0.00     0.018 C 
HETATM    8  C   UNK N   1     219.496 211.403 236.792  0.00  0.00     0.082 C 
BRANCH   8   9
HETATM    9  C   UNK N   1     218.583 210.710 237.725  0.00  0.00     0.165 C 
HETATM   10  O   UNK N   1     218.493 209.491 237.727  0.00  0.00    -0.647 OA
BRANCH   9  11
HETATM   11  O   UNK N   1     217.842 211.443 238.582  0.00  0.00    -0.773 OA
HETATM   12  H   UNK N   1     217.963 212.400 238.660  0.00  0.00     0.167 HD
ENDBRANCH   9  11
ENDBRANCH   8   9
ENDBRANCH   1   7
BRANCH   2  13
HETATM   13  O   UNK N   1     223.833 211.846 233.336  0.00  0.00    -0.353 OA
HETATM   14  C   UNK N   1     224.425 210.619 233.532  0.00  0.00     0.210 C 
ENDBRANCH   2  13
BRANCH   5  15
HETATM   15  O   UNK N   1     224.363 214.503 233.766  0.00  0.00    -0.358 OA
HETATM   16  H   UNK N   1     224.104 215.280 233.252  0.00  0.00     0.218 HD
ENDBRANCH   5  15
TORSDOF 5
ENDMDL
MODEL 8
REMARK VINA RESULT:      -4.2     21.714     23.494
REMARK  5 active torsions:
REMARK  status: ('A' for Active; 'I' for Inactive)
REMARK    1  A    between atoms: O_1  and  C_6 
REMARK    2  A    between atoms: O_2  and  C_9 
REMARK    3  A    between atoms: O_3  and  C_14 
REMARK    4  A    between atoms: C_5  and  C_11 
REMARK    5  A    between atoms: C_12  and  C_14 
ROOT
HETATM    1  C   UNK N   1     220.012 210.102 237.856  0.00  0.00    -0.033 A 
HETATM    2  C   UNK N   1     222.431 210.055 237.530  0.00  0.00     0.102 A 
HETATM    3  C   UNK N   1     221.319 210.328 238.337  0.00  0.00     0.051 A 
HETATM    4  C   UNK N   1     219.846 209.593 236.557  0.00  0.00     0.014 A 
HETATM    5  C   UNK N   1     222.250 209.560 236.233  0.00  0.00     0.099 A 
HETATM    6  C   UNK N   1     220.957 209.331 235.748  0.00  0.00     0.040 A 
ENDROOT
BRANCH   1   7
HETATM    7  C   UNK N   1     218.795 210.385 238.670  0.00  0.00     0.018 C 
HETATM    8  C   UNK N   1     218.537 211.585 239.229  0.00  0.00     0.082 C 
BRANCH   8   9
HETATM    9  C   UNK N   1     217.311 211.838 240.015  0.00  0.00     0.165 C 
HETATM   10  O   UNK N   1     216.868 210.992 240.778  0.00  0.00    -0.647 OA
BRANCH   9  11
HETATM   11  O   UNK N   1     216.677 213.022 239.879  0.00  0.00    -0.773 OA
HETATM   12  H   UNK N   1     216.788 213.729 240.529  0.00  0.00     0.167 HD
ENDBRANCH   9  11
ENDBRANCH   8   9
ENDBRANCH   1   7
BRANCH   2  13
HETATM   13  O   UNK N   1     223.674 210.273 238.004  0.00  0.00    -0.353 OA
HETATM   14  C   UNK N   1     224.017 209.927 239.292  0.00  0.00     0.210 C 
ENDBRANCH   2  13
BRANCH   5  15
HETATM   15  O   UNK N   1     223.328 209.313 235.457  0.00  0.00    -0.358 OA
HETATM   16  H   UNK N   1     223.864 210.029 235.089  0.00  0.00     0.218 HD
ENDBRANCH   5  15
TORSDOF 5
ENDMDL
MODEL 9
REMARK VINA RESULT:      -4.1     20.997     22.850
REMARK  5 active torsions:
REMARK  status: ('A' for Active; 'I' for Inactive)
REMARK    1  A    between atoms: O_1  and  C_6 
REMARK    2  A    between atoms: O_2  and  C_9 
REMARK    3  A    between atoms: O_3  and  C_14 
REMARK    4  A    between atoms: C_5  and  C_11 
REMARK    5  A    between atoms: C_12  and  C_14 
ROOT
HETATM    1  C   UNK N   1     219.959 210.579 237.626  0.00  0.00    -0.033 A 
HETATM    2  C   UNK N   1     221.182 209.458 235.836  0.00  0.00     0.102 A 
HETATM    3  C   UNK N   1     219.978 209.736 236.495  0.00  0.00     0.051 A 
HETATM    4  C   UNK N   1     221.166 211.140 238.074  0.00  0.00     0.014 A 
HETATM    5  C   UNK N   1     222.380 210.014 236.301  0.00  0.00     0.099 A 
HETATM    6  C   UNK N   1     222.369 210.853 237.421  0.00  0.00     0.040 A 
ENDROOT
BRANCH   1   7
HETATM    7  C   UNK N   1     218.706 210.898 238.370  0.00  0.00     0.018 C 
HETATM    8  C   UNK N   1     218.640 211.815 239.357  0.00  0.00     0.082 C 
BRANCH   8   9
HETATM    9  C   UNK N   1     217.377 212.121 240.061  0.00  0.00     0.165 C 
HETATM   10  O   UNK N   1     216.745 211.242 240.629  0.00  0.00    -0.647 OA
BRANCH   9  11
HETATM   11  O   UNK N   1     216.923 213.391 240.070  0.00  0.00    -0.773 OA
HETATM   12  H   UNK N   1     215.976 213.586 240.118  0.00  0.00     0.167 HD
ENDBRANCH   9  11
ENDBRANCH   8   9
ENDBRANCH   1   7
BRANCH   2  13
HETATM   13  O   UNK N   1     221.185 208.654 234.754  0.00  0.00    -0.353 OA
HETATM   14  C   UNK N   1     220.343 208.886 233.690  0.00  0.00     0.210 C 
ENDBRANCH   2  13
BRANCH   5  15
HETATM   15  O   UNK N   1     223.538 209.729 235.667  0.00  0.00    -0.358 OA
HETATM   16  H   UNK N   1     223.551 209.306 234.797  0.00  0.00     0.218 HD
ENDBRANCH   5  15
TORSDOF 5
ENDMDL
