MODEL 1
REMARK VINA RESULT:       4.5      0.000      0.000
REMARK  4 active torsions:
REMARK  status: ('A' for Active; 'I' for Inactive)
REMARK    1  A    between atoms: O_2  and  C_28 
REMARK    2  A    between atoms: N_4  and  C_14 
REMARK       I    between atoms: N_5  and  C_23 
REMARK    3  A    between atoms: N_7  and  C_30 
REMARK       I    between atoms: N_7  and  C_31 
REMARK    4  A    between atoms: C_23  and  C_25 
ROOT
HETATM    1  C   UNK N   1     206.570 211.138 218.468  0.00  0.00     0.035 A 
HETATM    2  C   UNK N   1     206.865 210.338 219.578  0.00  0.00     0.056 A 
HETATM    3  C   UNK N   1     205.954 210.571 217.352  0.00  0.00     0.019 A 
HETATM    4  C   UNK N   1     206.578 208.967 219.562  0.00  0.00     0.096 A 
HETATM    5  C   UNK N   1     205.690 209.201 217.313  0.00  0.00     0.034 A 
HETATM    6  C   UNK N   1     206.026 208.368 218.403  0.00  0.00     0.082 A 
ENDROOT
BRANCH   6   7
HETATM    7  N   UNK N   1     205.808 206.949 218.382  0.00  0.00    -0.189 N 
HETATM    8  C   UNK N   1     204.819 206.229 219.127  0.00  0.00     0.684 A 
HETATM    9  N   UNK N   1     203.924 206.845 219.922  0.00  0.00    -0.174 N 
HETATM   10  N   UNK N   1     204.744 204.907 218.990  0.00  0.00    -0.199 N 
HETATM   11  C   UNK N   1     202.948 206.234 220.679  0.00  0.00     0.152 A 
ATOM     12  HN  UNK N   1     203.973 207.862 219.970  1.00  0.00     0.186 HD
HETATM   13  N   UNK N   1     202.173 207.087 221.463  0.00  0.00    -0.334 N 
HETATM   14  C   UNK N   1     202.878 204.792 220.579  0.00  0.00     0.098 A 
HETATM   15  C   UNK N   1     201.227 206.797 222.451  0.00  0.00     0.051 A 
HETATM   16  C   UNK N   1     202.395 208.551 221.203  0.00  0.00     0.158 C 
HETATM   17  C   UNK N   1     200.741 205.491 222.809  0.00  0.00     0.059 A 
HETATM   18  C   UNK N   1     200.675 207.908 223.209  0.00  0.00     0.031 A 
HETATM   19  C   UNK N   1     201.069 204.230 222.238  0.00  0.00     0.260 A 
HETATM   20  C   UNK N   1     199.770 205.419 223.880  0.00  0.00     0.019 A 
HETATM   21  O   UNK N   1     200.451 203.278 222.700  0.00  0.00    -0.267 OA
HETATM   22  N   UNK N   1     202.001 203.939 221.248  0.00  0.00    -0.314 N 
HETATM   23  C   UNK N   1     202.072 202.482 220.878  0.00  0.00     0.160 C 
HETATM   24  C   UNK N   1     199.304 206.520 224.561  0.00  0.00     0.001 A 
HETATM   25  C   UNK N   1     199.753 207.759 224.225  0.00  0.00     0.002 A 
HETATM   26  C   UNK N   1     203.826 204.192 219.663  0.00  0.00     0.139 A 
ATOM     27  HN  UNK N   1     205.394 204.429 218.366  1.00  0.00     0.183 HD
HETATM   28  H   UNK N   1     206.343 206.394 217.697  0.00  0.00     0.184 HD
ENDBRANCH   6   7
BRANCH   4  29
HETATM   29  O   UNK N   1     206.831 208.235 220.671  0.00  0.00    -0.354 OA
HETATM   30  C   UNK N   1     206.027 208.263 221.787  0.00  0.00     0.210 C 
ENDBRANCH   4  29
BRANCH   1  31
HETATM   31  C   UNK N   1     206.900 212.578 218.478  0.00  0.00     0.253 C 
HETATM   32  O   UNK N   1     207.659 212.989 219.343  0.00  0.00    -0.267 OA
HETATM   33  N   UNK N   1     206.329 213.457 217.583  0.00  0.00    -0.348 N 
HETATM   34  C   UNK N   1     205.277 213.058 216.656  0.00  0.00     0.128 C 
HETATM   35  C   UNK N   1     206.681 214.869 217.579  0.00  0.00     0.128 C 
HETATM   36  C   UNK N   1     204.002 213.851 216.992  0.00  0.00     0.055 C 
HETATM   37  C   UNK N   1     204.250 215.391 216.958  0.00  0.00     0.226 C 
HETATM   38  C   UNK N   1     205.439 215.699 217.918  0.00  0.00     0.055 C 
BRANCH  37  39
HETATM   39  N   UNK N   1     203.032 216.177 217.355  0.00  0.00     0.096 N 
HETATM   40  C   UNK N   1     201.769 215.416 217.174  0.00  0.00     0.303 C 
HETATM   41  C   UNK N   1     200.552 216.249 217.595  0.00  0.00     0.302 C 
HETATM   42  N   UNK N   1     200.489 217.484 216.800  0.00  0.00     0.087 N 
HETATM   43  C   UNK N   1     201.714 218.266 217.018  0.00  0.00     0.302 C 
HETATM   44  C   UNK N   1     199.305 218.276 217.166  0.00  0.00     0.310 C 
HETATM   45  C   UNK N   1     202.936 217.447 216.589  0.00  0.00     0.303 C 
ENDBRANCH  37  39
ENDBRANCH   1  31
TORSDOF 4
ENDMDL
