MODEL 1
REMARK VINA RESULT:      -6.6      0.000      0.000
REMARK  5 active torsions:
REMARK  status: ('A' for Active; 'I' for Inactive)
REMARK    1  A    between atoms: O_2  and  C_13 
REMARK    2  A    between atoms: O_4  and  C_16 
REMARK    3  A    between atoms: O_5  and  C_19 
REMARK    4  A    between atoms: O_6  and  C_21 
REMARK    5  A    between atoms: C_9  and  C_10 
ROOT
HETATM    1  O   UNK N   1     206.707 206.514 220.436  0.00  0.00    -0.309 OA
HETATM    2  O   UNK N   1     203.322 204.608 221.226  0.00  0.00    -0.287 OA
HETATM    3  C   UNK N   1     205.626 204.573 221.331  0.00  0.00     0.081 A 
HETATM    4  C   UNK N   1     206.795 205.320 221.018  0.00  0.00     0.095 A 
HETATM    5  C   UNK N   1     205.547 207.097 220.148  0.00  0.00     0.090 A 
HETATM    6  C   UNK N   1     204.379 205.167 221.008  0.00  0.00     0.190 A 
HETATM    7  C   UNK N   1     204.350 206.432 220.432  0.00  0.00     0.094 A 
HETATM    8  C   UNK N   1     205.780 203.288 221.949  0.00  0.00     0.085 A 
HETATM    9  C   UNK N   1     208.062 204.820 221.328  0.00  0.00     0.075 A 
HETATM   10  C   UNK N   1     208.201 203.578 221.943  0.00  0.00     0.071 A 
HETATM   11  C   UNK N   1     207.066 202.820 222.243  0.00  0.00     0.074 A 
ENDROOT
BRANCH   5  12
HETATM   12  C   UNK N   1     205.553 208.447 219.530  0.00  0.00     0.001 A 
HETATM   13  C   UNK N   1     206.430 209.431 220.015  0.00  0.00     0.053 A 
HETATM   14  C   UNK N   1     206.458 210.707 219.440  0.00  0.00     0.099 A 
HETATM   15  C   UNK N   1     205.578 211.020 218.388  0.00  0.00     0.098 A 
HETATM   16  C   UNK N   1     204.690 210.046 217.914  0.00  0.00     0.040 A 
HETATM   17  C   UNK N   1     204.683 208.768 218.470  0.00  0.00     0.017 A 
BRANCH  14  18
HETATM   18  O   UNK N   1     207.336 211.620 219.907  0.00  0.00    -0.358 OA
HETATM   19  H   UNK N   1     207.411 211.831 220.847  0.00  0.00     0.218 HD
ENDBRANCH  14  18
BRANCH  15  20
HETATM   20  O   UNK N   1     205.584 212.253 217.841  0.00  0.00    -0.358 OA
HETATM   21  H   UNK N   1     205.771 213.043 218.369  0.00  0.00     0.218 HD
ENDBRANCH  15  20
ENDBRANCH   5  12
BRANCH   8  22
HETATM   22  O   UNK N   1     204.747 202.478 222.280  0.00  0.00    -0.360 OA
HETATM   23  H   UNK N   1     204.785 201.696 222.836  0.00  0.00     0.217 HD
ENDBRANCH   8  22
BRANCH  10  24
HETATM   24  O   UNK N   1     209.433 203.117 222.242  0.00  0.00    -0.361 OA
HETATM   25  H   UNK N   1     210.194 203.293 221.669  0.00  0.00     0.217 HD
ENDBRANCH  10  24
TORSDOF 5
ENDMDL
MODEL 2
REMARK VINA RESULT:      -6.6      3.210      6.659
REMARK  5 active torsions:
REMARK  status: ('A' for Active; 'I' for Inactive)
REMARK    1  A    between atoms: O_2  and  C_13 
REMARK    2  A    between atoms: O_4  and  C_16 
REMARK    3  A    between atoms: O_5  and  C_19 
REMARK    4  A    between atoms: O_6  and  C_21 
REMARK    5  A    between atoms: C_9  and  C_10 
ROOT
HETATM    1  O   UNK N   1     204.208 207.625 221.980  0.00  0.00    -0.309 OA
HETATM    2  O   UNK N   1     203.354 209.251 218.468  0.00  0.00    -0.287 OA
HETATM    3  C   UNK N   1     202.848 209.136 220.715  0.00  0.00     0.081 A 
HETATM    4  C   UNK N   1     203.216 208.512 221.938  0.00  0.00     0.095 A 
HETATM    5  C   UNK N   1     204.935 207.297 220.916  0.00  0.00     0.090 A 
HETATM    6  C   UNK N   1     203.594 208.781 219.562  0.00  0.00     0.190 A 
HETATM    7  C   UNK N   1     204.642 207.874 219.675  0.00  0.00     0.094 A 
HETATM    8  C   UNK N   1     201.764 210.076 220.726  0.00  0.00     0.085 A 
HETATM    9  C   UNK N   1     202.550 208.826 223.125  0.00  0.00     0.075 A 
HETATM   10  C   UNK N   1     201.510 209.752 223.129  0.00  0.00     0.071 A 
HETATM   11  C   UNK N   1     201.120 210.364 221.935  0.00  0.00     0.074 A 
ENDROOT
BRANCH   5  12
HETATM   12  C   UNK N   1     206.044 206.324 221.072  0.00  0.00     0.001 A 
HETATM   13  C   UNK N   1     207.368 206.732 220.834  0.00  0.00     0.053 A 
HETATM   14  C   UNK N   1     208.429 205.833 220.985  0.00  0.00     0.099 A 
HETATM   15  C   UNK N   1     208.170 204.498 221.349  0.00  0.00     0.098 A 
HETATM   16  C   UNK N   1     206.850 204.085 221.571  0.00  0.00     0.040 A 
HETATM   17  C   UNK N   1     205.797 204.988 221.446  0.00  0.00     0.017 A 
BRANCH  14  18
HETATM   18  O   UNK N   1     209.692 206.264 220.781  0.00  0.00    -0.358 OA
HETATM   19  H   UNK N   1     210.104 206.260 219.906  0.00  0.00     0.218 HD
ENDBRANCH  14  18
BRANCH  15  20
HETATM   20  O   UNK N   1     209.185 203.619 221.479  0.00  0.00    -0.358 OA
HETATM   21  H   UNK N   1     209.751 203.383 220.730  0.00  0.00     0.218 HD
ENDBRANCH  15  20
ENDBRANCH   5  12
BRANCH   8  22
HETATM   22  O   UNK N   1     201.312 210.723 219.626  0.00  0.00    -0.360 OA
HETATM   23  H   UNK N   1     201.006 211.632 219.579  0.00  0.00     0.217 HD
ENDBRANCH   8  22
BRANCH  10  24
HETATM   24  O   UNK N   1     200.886 210.048 224.287  0.00  0.00    -0.361 OA
HETATM   25  H   UNK N   1     200.433 210.894 224.418  0.00  0.00     0.217 HD
ENDBRANCH  10  24
TORSDOF 5
ENDMDL
MODEL 3
REMARK VINA RESULT:      -6.2     22.213     23.573
REMARK  5 active torsions:
REMARK  status: ('A' for Active; 'I' for Inactive)
REMARK    1  A    between atoms: O_2  and  C_13 
REMARK    2  A    between atoms: O_4  and  C_16 
REMARK    3  A    between atoms: O_5  and  C_19 
REMARK    4  A    between atoms: O_6  and  C_21 
REMARK    5  A    between atoms: C_9  and  C_10 
ROOT
HETATM    1  O   UNK N   1     221.798 211.472 235.586  0.00  0.00    -0.309 OA
HETATM    2  O   UNK N   1     222.779 215.291 235.997  0.00  0.00    -0.287 OA
HETATM    3  C   UNK N   1     223.041 213.352 234.776  0.00  0.00     0.081 A 
HETATM    4  C   UNK N   1     222.639 211.991 234.694  0.00  0.00     0.095 A 
HETATM    5  C   UNK N   1     221.255 212.182 236.570  0.00  0.00     0.090 A 
HETATM    6  C   UNK N   1     222.493 214.121 235.834  0.00  0.00     0.190 A 
HETATM    7  C   UNK N   1     221.592 213.533 236.715  0.00  0.00     0.094 A 
HETATM    8  C   UNK N   1     223.958 213.855 233.794  0.00  0.00     0.085 A 
HETATM    9  C   UNK N   1     223.111 211.171 233.666  0.00  0.00     0.075 A 
HETATM   10  C   UNK N   1     223.988 211.672 232.708  0.00  0.00     0.071 A 
HETATM   11  C   UNK N   1     224.410 213.003 232.780  0.00  0.00     0.074 A 
ENDROOT
BRANCH   5  12
HETATM   12  C   UNK N   1     220.299 211.522 237.493  0.00  0.00     0.001 A 
HETATM   13  C   UNK N   1     219.875 212.192 238.654  0.00  0.00     0.053 A 
HETATM   14  C   UNK N   1     218.966 211.591 239.532  0.00  0.00     0.099 A 
HETATM   15  C   UNK N   1     218.494 210.292 239.271  0.00  0.00     0.098 A 
HETATM   16  C   UNK N   1     218.928 209.615 238.123  0.00  0.00     0.040 A 
HETATM   17  C   UNK N   1     219.812 210.225 237.236  0.00  0.00     0.017 A 
BRANCH  14  18
HETATM   18  O   UNK N   1     218.553 212.274 240.621  0.00  0.00    -0.358 OA
HETATM   19  H   UNK N   1     217.631 212.276 240.910  0.00  0.00     0.218 HD
ENDBRANCH  14  18
BRANCH  15  20
HETATM   20  O   UNK N   1     217.633 209.697 240.121  0.00  0.00    -0.358 OA
HETATM   21  H   UNK N   1     216.827 210.142 240.421  0.00  0.00     0.218 HD
ENDBRANCH  15  20
ENDBRANCH   5  12
BRANCH   8  22
HETATM   22  O   UNK N   1     224.425 215.125 233.775  0.00  0.00    -0.360 OA
HETATM   23  H   UNK N   1     225.312 215.408 233.539  0.00  0.00     0.217 HD
ENDBRANCH   8  22
BRANCH  10  24
HETATM   24  O   UNK N   1     224.425 210.867 231.718  0.00  0.00    -0.361 OA
HETATM   25  H   UNK N   1     225.263 211.034 231.260  0.00  0.00     0.217 HD
ENDBRANCH  10  24
TORSDOF 5
ENDMDL
MODEL 4
REMARK VINA RESULT:      -6.2      1.246      1.676
REMARK  5 active torsions:
REMARK  status: ('A' for Active; 'I' for Inactive)
REMARK    1  A    between atoms: O_2  and  C_13 
REMARK    2  A    between atoms: O_4  and  C_16 
REMARK    3  A    between atoms: O_5  and  C_19 
REMARK    4  A    between atoms: O_6  and  C_21 
REMARK    5  A    between atoms: C_9  and  C_10 
ROOT
HETATM    1  O   UNK N   1     206.843 207.772 220.031  0.00  0.00    -0.309 OA
HETATM    2  O   UNK N   1     203.132 206.393 220.246  0.00  0.00    -0.287 OA
HETATM    3  C   UNK N   1     205.368 205.987 220.645  0.00  0.00     0.081 A 
HETATM    4  C   UNK N   1     206.668 206.552 220.537  0.00  0.00     0.095 A 
HETATM    5  C   UNK N   1     205.836 208.545 219.636  0.00  0.00     0.090 A 
HETATM    6  C   UNK N   1     204.281 206.787 220.205  0.00  0.00     0.190 A 
HETATM    7  C   UNK N   1     204.524 208.066 219.717  0.00  0.00     0.094 A 
HETATM    8  C   UNK N   1     205.239 204.666 221.188  0.00  0.00     0.085 A 
HETATM    9  C   UNK N   1     207.789 205.843 220.973  0.00  0.00     0.075 A 
HETATM   10  C   UNK N   1     207.653 204.568 221.514  0.00  0.00     0.071 A 
HETATM   11  C   UNK N   1     206.386 203.986 221.613  0.00  0.00     0.074 A 
ENDROOT
BRANCH   5  12
HETATM   12  C   UNK N   1     206.131 209.904 219.118  0.00  0.00     0.001 A 
HETATM   13  C   UNK N   1     207.392 210.480 219.350  0.00  0.00     0.053 A 
HETATM   14  C   UNK N   1     207.693 211.756 218.861  0.00  0.00     0.099 A 
HETATM   15  C   UNK N   1     206.716 212.486 218.158  0.00  0.00     0.098 A 
HETATM   16  C   UNK N   1     205.453 211.920 217.940  0.00  0.00     0.040 A 
HETATM   17  C   UNK N   1     205.164 210.639 218.404  0.00  0.00     0.017 A 
BRANCH  14  18
HETATM   18  O   UNK N   1     208.924 212.268 219.072  0.00  0.00    -0.358 OA
HETATM   19  H   UNK N   1     209.061 213.128 219.493  0.00  0.00     0.218 HD
ENDBRANCH  14  18
BRANCH  15  20
HETATM   20  O   UNK N   1     206.992 213.724 217.700  0.00  0.00    -0.358 OA
HETATM   21  H   UNK N   1     207.898 214.061 217.661  0.00  0.00     0.218 HD
ENDBRANCH  15  20
ENDBRANCH   5  12
BRANCH   8  22
HETATM   22  O   UNK N   1     204.059 204.016 221.327  0.00  0.00    -0.360 OA
HETATM   23  H   UNK N   1     203.848 203.134 221.012  0.00  0.00     0.217 HD
ENDBRANCH   8  22
BRANCH  10  24
HETATM   24  O   UNK N   1     208.747 203.903 221.937  0.00  0.00    -0.361 OA
HETATM   25  H   UNK N   1     208.882 202.965 221.735  0.00  0.00     0.217 HD
ENDBRANCH  10  24
TORSDOF 5
ENDMDL
MODEL 5
REMARK VINA RESULT:      -6.2     22.740     23.536
REMARK  5 active torsions:
REMARK  status: ('A' for Active; 'I' for Inactive)
REMARK    1  A    between atoms: O_2  and  C_13 
REMARK    2  A    between atoms: O_4  and  C_16 
REMARK    3  A    between atoms: O_5  and  C_19 
REMARK    4  A    between atoms: O_6  and  C_21 
REMARK    5  A    between atoms: C_9  and  C_10 
ROOT
HETATM    1  O   UNK N   1     221.200 211.907 236.853  0.00  0.00    -0.309 OA
HETATM    2  O   UNK N   1     222.766 208.682 235.161  0.00  0.00    -0.287 OA
HETATM    3  C   UNK N   1     222.766 210.985 235.292  0.00  0.00     0.081 A 
HETATM    4  C   UNK N   1     222.157 212.091 235.945  0.00  0.00     0.095 A 
HETATM    5  C   UNK N   1     220.783 210.704 237.233  0.00  0.00     0.090 A 
HETATM    6  C   UNK N   1     222.317 209.692 235.666  0.00  0.00     0.190 A 
HETATM    7  C   UNK N   1     221.338 209.562 236.645  0.00  0.00     0.094 A 
HETATM    8  C   UNK N   1     223.784 211.242 234.315  0.00  0.00     0.085 A 
HETATM    9  C   UNK N   1     222.561 213.397 235.655  0.00  0.00     0.075 A 
HETATM   10  C   UNK N   1     223.561 213.636 234.718  0.00  0.00     0.071 A 
HETATM   11  C   UNK N   1     224.161 212.564 234.051  0.00  0.00     0.074 A 
ENDROOT
BRANCH   5  12
HETATM   12  C   UNK N   1     219.735 210.601 238.280  0.00  0.00     0.001 A 
HETATM   13  C   UNK N   1     218.897 211.700 238.536  0.00  0.00     0.053 A 
HETATM   14  C   UNK N   1     217.897 211.620 239.512  0.00  0.00     0.099 A 
HETATM   15  C   UNK N   1     217.746 210.442 240.266  0.00  0.00     0.098 A 
HETATM   16  C   UNK N   1     218.591 209.351 240.023  0.00  0.00     0.040 A 
HETATM   17  C   UNK N   1     219.569 209.423 239.033  0.00  0.00     0.017 A 
BRANCH  14  18
HETATM   18  O   UNK N   1     217.086 212.681 239.711  0.00  0.00    -0.358 OA
HETATM   19  H   UNK N   1     217.117 213.209 240.521  0.00  0.00     0.218 HD
ENDBRANCH  14  18
BRANCH  15  20
HETATM   20  O   UNK N   1     216.797 210.362 241.221  0.00  0.00    -0.358 OA
HETATM   21  H   UNK N   1     216.721 209.590 241.799  0.00  0.00     0.218 HD
ENDBRANCH  15  20
ENDBRANCH   5  12
BRANCH   8  22
HETATM   22  O   UNK N   1     224.425 210.275 233.617  0.00  0.00    -0.360 OA
HETATM   23  H   UNK N   1     225.296 209.914 233.802  0.00  0.00     0.217 HD
ENDBRANCH   8  22
BRANCH  10  24
HETATM   24  O   UNK N   1     223.943 214.903 234.459  0.00  0.00    -0.361 OA
HETATM   25  H   UNK N   1     224.561 215.376 235.036  0.00  0.00     0.217 HD
ENDBRANCH  10  24
TORSDOF 5
ENDMDL
MODEL 6
REMARK VINA RESULT:      -6.0      2.772      6.718
REMARK  5 active torsions:
REMARK  status: ('A' for Active; 'I' for Inactive)
REMARK    1  A    between atoms: O_2  and  C_13 
REMARK    2  A    between atoms: O_4  and  C_16 
REMARK    3  A    between atoms: O_5  and  C_19 
REMARK    4  A    between atoms: O_6  and  C_21 
REMARK    5  A    between atoms: C_9  and  C_10 
ROOT
HETATM    1  O   UNK N   1     204.518 207.665 219.666  0.00  0.00    -0.309 OA
HETATM    2  O   UNK N   1     202.701 209.306 222.784  0.00  0.00    -0.287 OA
HETATM    3  C   UNK N   1     202.826 209.149 220.486  0.00  0.00     0.081 A 
HETATM    4  C   UNK N   1     203.524 208.517 219.421  0.00  0.00     0.095 A 
HETATM    5  C   UNK N   1     204.893 207.322 220.894  0.00  0.00     0.090 A 
HETATM    6  C   UNK N   1     203.227 208.815 221.805  0.00  0.00     0.190 A 
HETATM    7  C   UNK N   1     204.249 207.892 221.999  0.00  0.00     0.094 A 
HETATM    8  C   UNK N   1     201.771 210.065 220.164  0.00  0.00     0.085 A 
HETATM    9  C   UNK N   1     203.173 208.769 218.093  0.00  0.00     0.075 A 
HETATM   10  C   UNK N   1     202.137 209.648 217.790  0.00  0.00     0.071 A 
HETATM   11  C   UNK N   1     201.448 210.293 218.821  0.00  0.00     0.074 A 
ENDROOT
BRANCH   5  12
HETATM   12  C   UNK N   1     205.989 206.336 221.065  0.00  0.00     0.001 A 
HETATM   13  C   UNK N   1     207.318 206.723 220.824  0.00  0.00     0.053 A 
HETATM   14  C   UNK N   1     208.367 205.811 220.989  0.00  0.00     0.099 A 
HETATM   15  C   UNK N   1     208.089 204.485 221.368  0.00  0.00     0.098 A 
HETATM   16  C   UNK N   1     206.763 204.092 221.592  0.00  0.00     0.040 A 
HETATM   17  C   UNK N   1     205.723 205.008 221.454  0.00  0.00     0.017 A 
BRANCH  14  18
HETATM   18  O   UNK N   1     209.636 206.223 220.782  0.00  0.00    -0.358 OA
HETATM   19  H   UNK N   1     210.259 206.363 221.508  0.00  0.00     0.218 HD
ENDBRANCH  14  18
BRANCH  15  20
HETATM   20  O   UNK N   1     209.092 203.594 221.510  0.00  0.00    -0.358 OA
HETATM   21  H   UNK N   1     209.266 202.914 220.844  0.00  0.00     0.218 HD
ENDBRANCH  15  20
ENDBRANCH   5  12
BRANCH   8  22
HETATM   22  O   UNK N   1     201.044 210.738 221.087  0.00  0.00    -0.360 OA
HETATM   23  H   UNK N   1     201.115 211.671 221.307  0.00  0.00     0.217 HD
ENDBRANCH   8  22
BRANCH  10  24
HETATM   24  O   UNK N   1     201.807 209.871 216.501  0.00  0.00    -0.361 OA
HETATM   25  H   UNK N   1     201.935 210.737 216.087  0.00  0.00     0.217 HD
ENDBRANCH  10  24
TORSDOF 5
ENDMDL
MODEL 7
REMARK VINA RESULT:      -5.8     22.501     23.515
REMARK  5 active torsions:
REMARK  status: ('A' for Active; 'I' for Inactive)
REMARK    1  A    between atoms: O_2  and  C_13 
REMARK    2  A    between atoms: O_4  and  C_16 
REMARK    3  A    between atoms: O_5  and  C_19 
REMARK    4  A    between atoms: O_6  and  C_21 
REMARK    5  A    between atoms: C_9  and  C_10 
ROOT
HETATM    1  O   UNK N   1     220.327 211.859 238.199  0.00  0.00    -0.309 OA
HETATM    2  O   UNK N   1     218.407 208.503 239.077  0.00  0.00    -0.287 OA
HETATM    3  C   UNK N   1     218.700 210.741 239.556  0.00  0.00     0.081 A 
HETATM    4  C   UNK N   1     219.428 211.903 239.180  0.00  0.00     0.095 A 
HETATM    5  C   UNK N   1     220.575 210.761 237.491  0.00  0.00     0.090 A 
HETATM    6  C   UNK N   1     218.968 209.552 238.829  0.00  0.00     0.190 A 
HETATM    7  C   UNK N   1     219.894 209.576 237.792  0.00  0.00     0.094 A 
HETATM    8  C   UNK N   1     217.751 210.844 240.626  0.00  0.00     0.085 A 
HETATM    9  C   UNK N   1     219.204 213.121 239.826  0.00  0.00     0.075 A 
HETATM   10  C   UNK N   1     218.269 213.215 240.853  0.00  0.00     0.071 A 
HETATM   11  C   UNK N   1     217.555 212.081 241.250  0.00  0.00     0.074 A 
ENDROOT
BRANCH   5  12
HETATM   12  C   UNK N   1     221.571 210.821 236.392  0.00  0.00     0.001 A 
HETATM   13  C   UNK N   1     222.472 209.758 236.209  0.00  0.00     0.053 A 
HETATM   14  C   UNK N   1     223.412 209.791 235.173  0.00  0.00     0.099 A 
HETATM   15  C   UNK N   1     223.480 210.911 234.324  0.00  0.00     0.098 A 
HETATM   16  C   UNK N   1     222.594 211.980 234.515  0.00  0.00     0.040 A 
HETATM   17  C   UNK N   1     221.641 211.934 235.530  0.00  0.00     0.017 A 
BRANCH  14  18
HETATM   18  O   UNK N   1     224.241 208.739 235.003  0.00  0.00    -0.358 OA
HETATM   19  H   UNK N   1     223.946 207.826 235.116  0.00  0.00     0.218 HD
ENDBRANCH  14  18
BRANCH  15  20
HETATM   20  O   UNK N   1     224.395 210.960 233.335  0.00  0.00    -0.358 OA
HETATM   21  H   UNK N   1     224.773 211.798 233.033  0.00  0.00     0.218 HD
ENDBRANCH  15  20
ENDBRANCH   5  12
BRANCH   8  22
HETATM   22  O   UNK N   1     217.011 209.807 241.084  0.00  0.00    -0.360 OA
HETATM   23  H   UNK N   1     216.850 209.577 242.003  0.00  0.00     0.217 HD
ENDBRANCH   8  22
BRANCH  10  24
HETATM   24  O   UNK N   1     218.061 214.402 241.458  0.00  0.00    -0.361 OA
HETATM   25  H   UNK N   1     217.869 214.463 242.406  0.00  0.00     0.217 HD
ENDBRANCH  10  24
TORSDOF 5
ENDMDL
MODEL 8
REMARK VINA RESULT:      -5.7     22.729     23.572
REMARK  5 active torsions:
REMARK  status: ('A' for Active; 'I' for Inactive)
REMARK    1  A    between atoms: O_2  and  C_13 
REMARK    2  A    between atoms: O_4  and  C_16 
REMARK    3  A    between atoms: O_5  and  C_19 
REMARK    4  A    between atoms: O_6  and  C_21 
REMARK    5  A    between atoms: C_9  and  C_10 
ROOT
HETATM    1  O   UNK N   1     220.295 210.305 237.906  0.00  0.00    -0.309 OA
HETATM    2  O   UNK N   1     219.628 213.784 239.685  0.00  0.00    -0.287 OA
HETATM    3  C   UNK N   1     219.191 211.520 239.650  0.00  0.00     0.081 A 
HETATM    4  C   UNK N   1     219.482 210.311 238.960  0.00  0.00     0.095 A 
HETATM    5  C   UNK N   1     220.910 211.395 237.457  0.00  0.00     0.090 A 
HETATM    6  C   UNK N   1     219.817 212.700 239.172  0.00  0.00     0.190 A 
HETATM    7  C   UNK N   1     220.684 212.625 238.087  0.00  0.00     0.094 A 
HETATM    8  C   UNK N   1     218.300 211.469 240.773  0.00  0.00     0.085 A 
HETATM    9  C   UNK N   1     218.928 209.101 239.384  0.00  0.00     0.075 A 
HETATM   10  C   UNK N   1     218.078 209.059 240.485  0.00  0.00     0.071 A 
HETATM   11  C   UNK N   1     217.765 210.238 241.167  0.00  0.00     0.074 A 
ENDROOT
BRANCH   5  12
HETATM   12  C   UNK N   1     221.826 211.280 236.295  0.00  0.00     0.001 A 
HETATM   13  C   UNK N   1     222.606 210.123 236.136  0.00  0.00     0.053 A 
HETATM   14  C   UNK N   1     223.469 209.990 235.041  0.00  0.00     0.099 A 
HETATM   15  C   UNK N   1     223.582 211.037 234.108  0.00  0.00     0.098 A 
HETATM   16  C   UNK N   1     222.818 212.199 234.274  0.00  0.00     0.040 A 
HETATM   17  C   UNK N   1     221.939 212.318 235.349  0.00  0.00     0.017 A 
BRANCH  14  18
HETATM   18  O   UNK N   1     224.180 208.852 234.898  0.00  0.00    -0.358 OA
HETATM   19  H   UNK N   1     223.758 207.986 234.812  0.00  0.00     0.218 HD
ENDBRANCH  14  18
BRANCH  15  20
HETATM   20  O   UNK N   1     224.425 210.926 233.061  0.00  0.00    -0.358 OA
HETATM   21  H   UNK N   1     224.158 210.494 232.237  0.00  0.00     0.218 HD
ENDBRANCH  15  20
ENDBRANCH   5  12
BRANCH   8  22
HETATM   22  O   UNK N   1     217.936 212.552 241.500  0.00  0.00    -0.360 OA
HETATM   23  H   UNK N   1     217.123 212.661 242.001  0.00  0.00     0.217 HD
ENDBRANCH   8  22
BRANCH  10  24
HETATM   24  O   UNK N   1     217.561 207.879 240.883  0.00  0.00    -0.361 OA
HETATM   25  H   UNK N   1     217.154 207.771 241.756  0.00  0.00     0.217 HD
ENDBRANCH  10  24
TORSDOF 5
ENDMDL
MODEL 9
REMARK VINA RESULT:      -5.7     23.038     23.669
REMARK  5 active torsions:
REMARK  status: ('A' for Active; 'I' for Inactive)
REMARK    1  A    between atoms: O_2  and  C_13 
REMARK    2  A    between atoms: O_4  and  C_16 
REMARK    3  A    between atoms: O_5  and  C_19 
REMARK    4  A    between atoms: O_6  and  C_21 
REMARK    5  A    between atoms: C_9  and  C_10 
ROOT
HETATM    1  O   UNK N   1     219.704 211.869 238.402  0.00  0.00    -0.309 OA
HETATM    2  O   UNK N   1     220.954 208.421 239.907  0.00  0.00    -0.287 OA
HETATM    3  C   UNK N   1     219.330 210.059 239.925  0.00  0.00     0.081 A 
HETATM    4  C   UNK N   1     218.947 211.294 239.335  0.00  0.00     0.095 A 
HETATM    5  C   UNK N   1     220.824 211.322 237.938  0.00  0.00     0.090 A 
HETATM    6  C   UNK N   1     220.535 209.471 239.462  0.00  0.00     0.190 A 
HETATM    7  C   UNK N   1     221.265 210.102 238.460  0.00  0.00     0.094 A 
HETATM    8  C   UNK N   1     218.482 209.490 240.933  0.00  0.00     0.085 A 
HETATM    9  C   UNK N   1     217.760 211.926 239.715  0.00  0.00     0.075 A 
HETATM   10  C   UNK N   1     216.936 211.358 240.682  0.00  0.00     0.071 A 
HETATM   11  C   UNK N   1     217.301 210.153 241.287  0.00  0.00     0.074 A 
ENDROOT
BRANCH   5  12
HETATM   12  C   UNK N   1     221.580 212.024 236.871  0.00  0.00     0.001 A 
HETATM   13  C   UNK N   1     221.704 213.423 236.909  0.00  0.00     0.053 A 
HETATM   14  C   UNK N   1     222.422 214.102 235.918  0.00  0.00     0.099 A 
HETATM   15  C   UNK N   1     222.998 213.384 234.854  0.00  0.00     0.098 A 
HETATM   16  C   UNK N   1     222.862 211.991 234.805  0.00  0.00     0.040 A 
HETATM   17  C   UNK N   1     222.170 211.313 235.807  0.00  0.00     0.017 A 
BRANCH  14  18
HETATM   18  O   UNK N   1     222.551 215.443 236.001  0.00  0.00    -0.358 OA
HETATM   19  H   UNK N   1     221.806 216.044 235.860  0.00  0.00     0.218 HD
ENDBRANCH  14  18
BRANCH  15  20
HETATM   20  O   UNK N   1     223.675 214.032 233.884  0.00  0.00    -0.358 OA
HETATM   21  H   UNK N   1     223.912 214.967 233.968  0.00  0.00     0.218 HD
ENDBRANCH  15  20
ENDBRANCH   5  12
BRANCH   8  22
HETATM   22  O   UNK N   1     218.745 208.329 241.577  0.00  0.00    -0.360 OA
HETATM   23  H   UNK N   1     218.435 208.072 242.449  0.00  0.00     0.217 HD
ENDBRANCH   8  22
BRANCH  10  24
HETATM   24  O   UNK N   1     215.790 211.979 241.028  0.00  0.00    -0.361 OA
HETATM   25  H   UNK N   1     215.735 212.944 241.097  0.00  0.00     0.217 HD
ENDBRANCH  10  24
TORSDOF 5
ENDMDL
