MODEL 1
REMARK VINA RESULT:      -6.9      0.000      0.000
REMARK  6 active torsions:
REMARK  status: ('A' for Active; 'I' for Inactive)
REMARK    1  A    between atoms: O_2  and  C_12 
REMARK    2  A    between atoms: O_3  and  C_14 
REMARK    3  A    between atoms: O_5  and  C_16 
REMARK    4  A    between atoms: O_6  and  C_20 
REMARK    5  A    between atoms: O_7  and  C_22 
REMARK    6  A    between atoms: C_10  and  C_11 
ROOT
HETATM    1  O   UNK N   1     204.358 207.613 221.839  0.00  0.00    -0.306 OA
HETATM    2  O   UNK N   1     203.308 208.952 218.255  0.00  0.00    -0.284 OA
HETATM    3  C   UNK N   1     202.915 209.001 220.527  0.00  0.00     0.084 A 
HETATM    4  C   UNK N   1     203.351 208.476 221.776  0.00  0.00     0.096 A 
HETATM    5  C   UNK N   1     205.018 207.189 220.770  0.00  0.00     0.123 A 
HETATM    6  C   UNK N   1     204.663 207.651 219.492  0.00  0.00     0.152 A 
HETATM    7  C   UNK N   1     203.609 208.560 219.366  0.00  0.00     0.223 A 
HETATM    8  C   UNK N   1     201.820 209.929 220.524  0.00  0.00     0.085 A 
HETATM    9  C   UNK N   1     202.726 208.858 222.965  0.00  0.00     0.075 A 
HETATM   10  C   UNK N   1     201.666 209.756 222.951  0.00  0.00     0.071 A 
HETATM   11  C   UNK N   1     201.220 210.286 221.739  0.00  0.00     0.074 A 
ENDROOT
BRANCH   5  12
HETATM   12  C   UNK N   1     206.117 206.236 220.962  0.00  0.00     0.004 A 
HETATM   13  C   UNK N   1     207.442 206.652 220.788  0.00  0.00     0.053 A 
HETATM   14  C   UNK N   1     208.500 205.757 220.985  0.00  0.00     0.099 A 
HETATM   15  C   UNK N   1     208.219 204.421 221.377  0.00  0.00     0.098 A 
HETATM   16  C   UNK N   1     206.888 204.015 221.533  0.00  0.00     0.040 A 
HETATM   17  C   UNK N   1     205.842 204.916 221.327  0.00  0.00     0.017 A 
BRANCH  14  18
HETATM   18  O   UNK N   1     209.760 206.204 220.789  0.00  0.00    -0.358 OA
HETATM   19  H   UNK N   1     210.131 206.413 219.923  0.00  0.00     0.218 HD
ENDBRANCH  14  18
BRANCH  15  20
HETATM   20  O   UNK N   1     209.195 203.517 221.618  0.00  0.00    -0.358 OA
HETATM   21  H   UNK N   1     209.123 202.578 221.413  0.00  0.00     0.218 HD
ENDBRANCH  15  20
ENDBRANCH   5  12
BRANCH   6  22
HETATM   22  O   UNK N   1     205.319 207.234 218.382  0.00  0.00    -0.355 OA
HETATM   23  H   UNK N   1     205.143 207.594 217.502  0.00  0.00     0.218 HD
ENDBRANCH   6  22
BRANCH   8  24
HETATM   24  O   UNK N   1     201.314 210.499 219.406  0.00  0.00    -0.360 OA
HETATM   25  H   UNK N   1     200.421 210.830 219.282  0.00  0.00     0.217 HD
ENDBRANCH   8  24
BRANCH  10  26
HETATM   26  O   UNK N   1     201.078 210.109 224.113  0.00  0.00    -0.361 OA
HETATM   27  H   UNK N   1     200.372 209.579 224.510  0.00  0.00     0.217 HD
ENDBRANCH  10  26
TORSDOF 6
ENDMDL
MODEL 2
REMARK VINA RESULT:      -6.2     22.401     23.946
REMARK  6 active torsions:
REMARK  status: ('A' for Active; 'I' for Inactive)
REMARK    1  A    between atoms: O_2  and  C_12 
REMARK    2  A    between atoms: O_3  and  C_14 
REMARK    3  A    between atoms: O_5  and  C_16 
REMARK    4  A    between atoms: O_6  and  C_20 
REMARK    5  A    between atoms: O_7  and  C_22 
REMARK    6  A    between atoms: C_10  and  C_11 
ROOT
HETATM    1  O   UNK N   1     222.051 211.093 235.354  0.00  0.00    -0.306 OA
HETATM    2  O   UNK N   1     222.968 214.849 236.243  0.00  0.00    -0.284 OA
HETATM    3  C   UNK N   1     223.179 213.113 234.740  0.00  0.00     0.084 A 
HETATM    4  C   UNK N   1     222.807 211.762 234.491  0.00  0.00     0.096 A 
HETATM    5  C   UNK N   1     221.595 211.622 236.481  0.00  0.00     0.123 A 
HETATM    6  C   UNK N   1     221.907 212.950 236.815  0.00  0.00     0.152 A 
HETATM    7  C   UNK N   1     222.702 213.701 235.944  0.00  0.00     0.223 A 
HETATM    8  C   UNK N   1     224.000 213.782 233.771  0.00  0.00     0.085 A 
HETATM    9  C   UNK N   1     223.232 211.109 233.333  0.00  0.00     0.075 A 
HETATM   10  C   UNK N   1     224.027 211.765 232.401  0.00  0.00     0.071 A 
HETATM   11  C   UNK N   1     224.406 213.092 232.621  0.00  0.00     0.074 A 
ENDROOT
BRANCH   5  12
HETATM   12  C   UNK N   1     220.764 210.788 237.357  0.00  0.00     0.004 A 
HETATM   13  C   UNK N   1     221.361 210.013 238.358  0.00  0.00     0.053 A 
HETATM   14  C   UNK N   1     220.578 209.227 239.211  0.00  0.00     0.099 A 
HETATM   15  C   UNK N   1     219.165 209.231 239.061  0.00  0.00     0.098 A 
HETATM   16  C   UNK N   1     218.583 210.000 238.047  0.00  0.00     0.040 A 
HETATM   17  C   UNK N   1     219.376 210.775 237.198  0.00  0.00     0.017 A 
BRANCH  14  18
HETATM   18  O   UNK N   1     221.205 208.485 240.151  0.00  0.00    -0.358 OA
HETATM   19  H   UNK N   1     221.553 208.841 240.977  0.00  0.00     0.218 HD
ENDBRANCH  14  18
BRANCH  15  20
HETATM   20  O   UNK N   1     218.351 208.523 239.874  0.00  0.00    -0.358 OA
HETATM   21  H   UNK N   1     218.630 207.749 240.378  0.00  0.00     0.218 HD
ENDBRANCH  15  20
ENDBRANCH   5  12
BRANCH   6  22
HETATM   22  O   UNK N   1     221.457 213.516 237.961  0.00  0.00    -0.355 OA
HETATM   23  H   UNK N   1     222.036 213.978 238.582  0.00  0.00     0.218 HD
ENDBRANCH   6  22
BRANCH   8  24
HETATM   24  O   UNK N   1     224.420 215.063 233.890  0.00  0.00    -0.360 OA
HETATM   25  H   UNK N   1     225.324 215.363 234.011  0.00  0.00     0.217 HD
ENDBRANCH   8  24
BRANCH  10  26
HETATM   26  O   UNK N   1     224.425 211.113 231.289  0.00  0.00    -0.361 OA
HETATM   27  H   UNK N   1     224.700 211.586 230.491  0.00  0.00     0.217 HD
ENDBRANCH  10  26
TORSDOF 6
ENDMDL
MODEL 3
REMARK VINA RESULT:      -5.8      1.685      6.877
REMARK  6 active torsions:
REMARK  status: ('A' for Active; 'I' for Inactive)
REMARK    1  A    between atoms: O_2  and  C_12 
REMARK    2  A    between atoms: O_3  and  C_14 
REMARK    3  A    between atoms: O_5  and  C_16 
REMARK    4  A    between atoms: O_6  and  C_20 
REMARK    5  A    between atoms: O_7  and  C_22 
REMARK    6  A    between atoms: C_10  and  C_11 
ROOT
HETATM    1  O   UNK N   1     203.757 206.897 221.640  0.00  0.00    -0.306 OA
HETATM    2  O   UNK N   1     207.172 208.386 220.280  0.00  0.00    -0.284 OA
HETATM    3  C   UNK N   1     206.025 206.513 220.983  0.00  0.00     0.084 A 
HETATM    4  C   UNK N   1     204.768 206.054 221.466  0.00  0.00     0.096 A 
HETATM    5  C   UNK N   1     203.840 208.194 221.380  0.00  0.00     0.123 A 
HETATM    6  C   UNK N   1     205.039 208.742 220.897  0.00  0.00     0.152 A 
HETATM    7  C   UNK N   1     206.138 207.902 220.697  0.00  0.00     0.223 A 
HETATM    8  C   UNK N   1     207.081 205.554 220.817  0.00  0.00     0.085 A 
HETATM    9  C   UNK N   1     204.571 204.706 221.770  0.00  0.00     0.075 A 
HETATM   10  C   UNK N   1     205.600 203.786 221.607  0.00  0.00     0.071 A 
HETATM   11  C   UNK N   1     206.844 204.210 221.133  0.00  0.00     0.074 A 
ENDROOT
BRANCH   5  12
HETATM   12  C   UNK N   1     202.654 209.028 221.608  0.00  0.00     0.004 A 
HETATM   13  C   UNK N   1     202.237 209.309 222.914  0.00  0.00     0.053 A 
HETATM   14  C   UNK N   1     201.118 210.118 223.145  0.00  0.00     0.099 A 
HETATM   15  C   UNK N   1     200.413 210.665 222.039  0.00  0.00     0.098 A 
HETATM   16  C   UNK N   1     200.834 210.364 220.738  0.00  0.00     0.040 A 
HETATM   17  C   UNK N   1     201.948 209.550 220.522  0.00  0.00     0.017 A 
BRANCH  14  18
HETATM   18  O   UNK N   1     200.747 210.345 224.424  0.00  0.00    -0.358 OA
HETATM   19  H   UNK N   1     201.288 210.818 225.068  0.00  0.00     0.218 HD
ENDBRANCH  14  18
BRANCH  15  20
HETATM   20  O   UNK N   1     199.348 211.482 222.193  0.00  0.00    -0.358 OA
HETATM   21  H   UNK N   1     199.339 212.412 221.937  0.00  0.00     0.218 HD
ENDBRANCH  15  20
ENDBRANCH   5  12
BRANCH   6  22
HETATM   22  O   UNK N   1     205.153 210.064 220.625  0.00  0.00    -0.355 OA
HETATM   23  H   UNK N   1     204.740 210.480 219.855  0.00  0.00     0.218 HD
ENDBRANCH   6  22
BRANCH   8  24
HETATM   24  O   UNK N   1     208.319 205.863 220.365  0.00  0.00    -0.360 OA
HETATM   25  H   UNK N   1     209.131 205.380 220.538  0.00  0.00     0.217 HD
ENDBRANCH   8  24
BRANCH  10  26
HETATM   26  O   UNK N   1     205.386 202.488 221.908  0.00  0.00    -0.361 OA
HETATM   27  H   UNK N   1     205.741 201.773 221.361  0.00  0.00     0.217 HD
ENDBRANCH  10  26
TORSDOF 6
ENDMDL
MODEL 4
REMARK VINA RESULT:      -5.6      1.649      7.130
REMARK  6 active torsions:
REMARK  status: ('A' for Active; 'I' for Inactive)
REMARK    1  A    between atoms: O_2  and  C_12 
REMARK    2  A    between atoms: O_3  and  C_14 
REMARK    3  A    between atoms: O_5  and  C_16 
REMARK    4  A    between atoms: O_6  and  C_20 
REMARK    5  A    between atoms: O_7  and  C_22 
REMARK    6  A    between atoms: C_10  and  C_11 
ROOT
HETATM    1  O   UNK N   1     204.859 207.292 221.296  0.00  0.00    -0.306 OA
HETATM    2  O   UNK N   1     203.671 203.634 222.269  0.00  0.00    -0.284 OA
HETATM    3  C   UNK N   1     205.424 204.991 221.633  0.00  0.00     0.084 A 
HETATM    4  C   UNK N   1     205.773 206.328 221.296  0.00  0.00     0.096 A 
HETATM    5  C   UNK N   1     203.587 207.085 221.606  0.00  0.00     0.123 A 
HETATM    6  C   UNK N   1     203.145 205.798 221.953  0.00  0.00     0.152 A 
HETATM    7  C   UNK N   1     204.064 204.745 221.968  0.00  0.00     0.223 A 
HETATM    8  C   UNK N   1     206.456 203.993 221.613  0.00  0.00     0.085 A 
HETATM    9  C   UNK N   1     207.087 206.657 220.956  0.00  0.00     0.075 A 
HETATM   10  C   UNK N   1     208.078 205.683 220.939  0.00  0.00     0.071 A 
HETATM   11  C   UNK N   1     207.762 204.363 221.266  0.00  0.00     0.074 A 
ENDROOT
BRANCH   5  12
HETATM   12  C   UNK N   1     202.667 208.227 221.575  0.00  0.00     0.004 A 
HETATM   13  C   UNK N   1     202.226 208.804 222.772  0.00  0.00     0.053 A 
HETATM   14  C   UNK N   1     201.363 209.905 222.755  0.00  0.00     0.099 A 
HETATM   15  C   UNK N   1     200.945 210.445 221.509  0.00  0.00     0.098 A 
HETATM   16  C   UNK N   1     201.383 209.850 220.320  0.00  0.00     0.040 A 
HETATM   17  C   UNK N   1     202.239 208.747 220.351  0.00  0.00     0.017 A 
BRANCH  14  18
HETATM   18  O   UNK N   1     200.954 210.414 223.939  0.00  0.00    -0.358 OA
HETATM   19  H   UNK N   1     200.265 211.083 224.030  0.00  0.00     0.218 HD
ENDBRANCH  14  18
BRANCH  15  20
HETATM   20  O   UNK N   1     200.142 211.528 221.424  0.00  0.00    -0.358 OA
HETATM   21  H   UNK N   1     200.104 212.113 220.658  0.00  0.00     0.218 HD
ENDBRANCH  15  20
ENDBRANCH   5  12
BRANCH   6  22
HETATM   22  O   UNK N   1     201.850 205.557 222.272  0.00  0.00    -0.355 OA
HETATM   23  H   UNK N   1     201.255 205.050 221.704  0.00  0.00     0.218 HD
ENDBRANCH   6  22
BRANCH   8  24
HETATM   24  O   UNK N   1     206.254 202.689 221.914  0.00  0.00    -0.360 OA
HETATM   25  H   UNK N   1     206.293 201.945 221.306  0.00  0.00     0.217 HD
ENDBRANCH   8  24
BRANCH  10  26
HETATM   26  O   UNK N   1     209.340 206.025 220.606  0.00  0.00    -0.361 OA
HETATM   27  H   UNK N   1     210.084 205.879 221.209  0.00  0.00     0.217 HD
ENDBRANCH  10  26
TORSDOF 6
ENDMDL
MODEL 5
REMARK VINA RESULT:      -5.6     22.818     24.592
REMARK  6 active torsions:
REMARK  status: ('A' for Active; 'I' for Inactive)
REMARK    1  A    between atoms: O_2  and  C_12 
REMARK    2  A    between atoms: O_3  and  C_14 
REMARK    3  A    between atoms: O_5  and  C_16 
REMARK    4  A    between atoms: O_6  and  C_20 
REMARK    5  A    between atoms: O_7  and  C_22 
REMARK    6  A    between atoms: C_10  and  C_11 
ROOT
HETATM    1  O   UNK N   1     222.221 210.815 238.118  0.00  0.00    -0.306 OA
HETATM    2  O   UNK N   1     218.261 210.736 238.332  0.00  0.00    -0.284 OA
HETATM    3  C   UNK N   1     220.256 209.925 239.155  0.00  0.00     0.084 A 
HETATM    4  C   UNK N   1     221.670 210.009 239.018  0.00  0.00     0.096 A 
HETATM    5  C   UNK N   1     221.512 211.585 237.303  0.00  0.00     0.123 A 
HETATM    6  C   UNK N   1     220.109 211.572 237.362  0.00  0.00     0.152 A 
HETATM    7  C   UNK N   1     219.476 210.741 238.290  0.00  0.00     0.223 A 
HETATM    8  C   UNK N   1     219.721 209.034 240.145  0.00  0.00     0.085 A 
HETATM    9  C   UNK N   1     222.511 209.243 239.829  0.00  0.00     0.075 A 
HETATM   10  C   UNK N   1     221.982 208.383 240.783  0.00  0.00     0.071 A 
HETATM   11  C   UNK N   1     220.598 208.282 240.938  0.00  0.00     0.074 A 
ENDROOT
BRANCH   5  12
HETATM   12  C   UNK N   1     222.231 212.439 236.350  0.00  0.00     0.004 A 
HETATM   13  C   UNK N   1     222.243 213.827 236.526  0.00  0.00     0.053 A 
HETATM   14  C   UNK N   1     222.940 214.651 235.635  0.00  0.00     0.099 A 
HETATM   15  C   UNK N   1     223.647 214.064 234.551  0.00  0.00     0.098 A 
HETATM   16  C   UNK N   1     223.614 212.675 234.379  0.00  0.00     0.040 A 
HETATM   17  C   UNK N   1     222.910 211.865 235.273  0.00  0.00     0.017 A 
BRANCH  14  18
HETATM   18  O   UNK N   1     222.907 215.986 235.840  0.00  0.00    -0.358 OA
HETATM   19  H   UNK N   1     222.891 216.641 235.132  0.00  0.00     0.218 HD
ENDBRANCH  14  18
BRANCH  15  20
HETATM   20  O   UNK N   1     224.368 214.799 233.676  0.00  0.00    -0.358 OA
HETATM   21  H   UNK N   1     225.272 215.095 233.836  0.00  0.00     0.218 HD
ENDBRANCH  15  20
ENDBRANCH   5  12
BRANCH   6  22
HETATM   22  O   UNK N   1     219.360 212.346 236.541  0.00  0.00    -0.355 OA
HETATM   23  H   UNK N   1     219.143 212.092 235.633  0.00  0.00     0.218 HD
ENDBRANCH   6  22
BRANCH   8  24
HETATM   24  O   UNK N   1     218.398 208.864 240.374  0.00  0.00    -0.360 OA
HETATM   25  H   UNK N   1     217.982 208.125 240.826  0.00  0.00     0.217 HD
ENDBRANCH   8  24
BRANCH  10  26
HETATM   26  O   UNK N   1     222.814 207.653 241.554  0.00  0.00    -0.361 OA
HETATM   27  H   UNK N   1     223.756 207.865 241.631  0.00  0.00     0.217 HD
ENDBRANCH  10  26
TORSDOF 6
ENDMDL
MODEL 6
REMARK VINA RESULT:      -5.5     23.212     24.325
REMARK  6 active torsions:
REMARK  status: ('A' for Active; 'I' for Inactive)
REMARK    1  A    between atoms: O_2  and  C_12 
REMARK    2  A    between atoms: O_3  and  C_14 
REMARK    3  A    between atoms: O_5  and  C_16 
REMARK    4  A    between atoms: O_6  and  C_20 
REMARK    5  A    between atoms: O_7  and  C_22 
REMARK    6  A    between atoms: C_10  and  C_11 
ROOT
HETATM    1  O   UNK N   1     219.918 212.067 238.354  0.00  0.00    -0.306 OA
HETATM    2  O   UNK N   1     221.200 208.565 239.707  0.00  0.00    -0.284 OA
HETATM    3  C   UNK N   1     219.541 210.166 239.758  0.00  0.00     0.084 A 
HETATM    4  C   UNK N   1     219.149 211.427 239.227  0.00  0.00     0.096 A 
HETATM    5  C   UNK N   1     221.078 211.591 237.921  0.00  0.00     0.123 A 
HETATM    6  C   UNK N   1     221.550 210.353 238.387  0.00  0.00     0.152 A 
HETATM    7  C   UNK N   1     220.782 209.635 239.309  0.00  0.00     0.223 A 
HETATM    8  C   UNK N   1     218.668 209.524 240.699  0.00  0.00     0.085 A 
HETATM    9  C   UNK N   1     217.945 212.019 239.614  0.00  0.00     0.075 A 
HETATM   10  C   UNK N   1     217.108 211.389 240.526  0.00  0.00     0.071 A 
HETATM   11  C   UNK N   1     217.469 210.151 241.062  0.00  0.00     0.074 A 
ENDROOT
BRANCH   5  12
HETATM   12  C   UNK N   1     221.841 212.386 236.953  0.00  0.00     0.004 A 
HETATM   13  C   UNK N   1     222.728 213.371 237.401  0.00  0.00     0.053 A 
HETATM   14  C   UNK N   1     223.475 214.124 236.488  0.00  0.00     0.099 A 
HETATM   15  C   UNK N   1     223.335 213.872 235.097  0.00  0.00     0.098 A 
HETATM   16  C   UNK N   1     222.433 212.893 234.663  0.00  0.00     0.040 A 
HETATM   17  C   UNK N   1     221.689 212.153 235.584  0.00  0.00     0.017 A 
BRANCH  14  18
HETATM   18  O   UNK N   1     224.305 215.075 236.972  0.00  0.00    -0.358 OA
HETATM   19  H   UNK N   1     225.029 214.898 237.585  0.00  0.00     0.218 HD
ENDBRANCH  14  18
BRANCH  15  20
HETATM   20  O   UNK N   1     224.052 214.539 234.166  0.00  0.00    -0.358 OA
HETATM   21  H   UNK N   1     224.901 214.964 234.341  0.00  0.00     0.218 HD
ENDBRANCH  15  20
ENDBRANCH   5  12
BRANCH   6  22
HETATM   22  O   UNK N   1     222.731 209.842 237.964  0.00  0.00    -0.355 OA
HETATM   23  H   UNK N   1     223.299 209.297 238.525  0.00  0.00     0.218 HD
ENDBRANCH   6  22
BRANCH   8  24
HETATM   24  O   UNK N   1     218.925 208.326 241.275  0.00  0.00    -0.360 OA
HETATM   25  H   UNK N   1     219.539 208.153 241.993  0.00  0.00     0.217 HD
ENDBRANCH   8  24
BRANCH  10  26
HETATM   26  O   UNK N   1     215.950 211.981 240.885  0.00  0.00    -0.361 OA
HETATM   27  H   UNK N   1     215.408 211.643 241.613  0.00  0.00     0.217 HD
ENDBRANCH  10  26
TORSDOF 6
ENDMDL
MODEL 7
REMARK VINA RESULT:      -5.5      3.302      5.896
REMARK  6 active torsions:
REMARK  status: ('A' for Active; 'I' for Inactive)
REMARK    1  A    between atoms: O_2  and  C_12 
REMARK    2  A    between atoms: O_3  and  C_14 
REMARK    3  A    between atoms: O_5  and  C_16 
REMARK    4  A    between atoms: O_6  and  C_20 
REMARK    5  A    between atoms: O_7  and  C_22 
REMARK    6  A    between atoms: C_10  and  C_11 
ROOT
HETATM    1  O   UNK N   1     205.147 207.834 219.628  0.00  0.00    -0.306 OA
HETATM    2  O   UNK N   1     203.864 208.091 223.373  0.00  0.00    -0.284 OA
HETATM    3  C   UNK N   1     204.147 206.754 221.515  0.00  0.00     0.084 A 
HETATM    4  C   UNK N   1     204.630 206.741 220.177  0.00  0.00     0.096 A 
HETATM    5  C   UNK N   1     205.253 208.989 220.271  0.00  0.00     0.123 A 
HETATM    6  C   UNK N   1     204.805 209.101 221.598  0.00  0.00     0.152 A 
HETATM    7  C   UNK N   1     204.250 207.982 222.225  0.00  0.00     0.223 A 
HETATM    8  C   UNK N   1     203.597 205.541 222.052  0.00  0.00     0.085 A 
HETATM    9  C   UNK N   1     204.568 205.576 219.409  0.00  0.00     0.075 A 
HETATM   10  C   UNK N   1     204.033 204.408 219.938  0.00  0.00     0.071 A 
HETATM   11  C   UNK N   1     203.553 204.394 221.250  0.00  0.00     0.074 A 
ENDROOT
BRANCH   5  12
HETATM   12  C   UNK N   1     205.845 210.129 219.564  0.00  0.00     0.004 A 
HETATM   13  C   UNK N   1     207.173 210.495 219.814  0.00  0.00     0.053 A 
HETATM   14  C   UNK N   1     207.755 211.570 219.132  0.00  0.00     0.099 A 
HETATM   15  C   UNK N   1     206.989 212.283 218.171  0.00  0.00     0.098 A 
HETATM   16  C   UNK N   1     205.658 211.915 217.942  0.00  0.00     0.040 A 
HETATM   17  C   UNK N   1     205.087 210.844 218.633  0.00  0.00     0.017 A 
BRANCH  14  18
HETATM   18  O   UNK N   1     209.035 211.893 219.423  0.00  0.00    -0.358 OA
HETATM   19  H   UNK N   1     209.490 211.624 220.229  0.00  0.00     0.218 HD
ENDBRANCH  14  18
BRANCH  15  20
HETATM   20  O   UNK N   1     207.502 213.307 217.454  0.00  0.00    -0.358 OA
HETATM   21  H   UNK N   1     208.432 213.561 217.464  0.00  0.00     0.218 HD
ENDBRANCH  15  20
ENDBRANCH   5  12
BRANCH   6  22
HETATM   22  O   UNK N   1     204.899 210.269 222.279  0.00  0.00    -0.355 OA
HETATM   23  H   UNK N   1     204.239 210.972 222.210  0.00  0.00     0.218 HD
ENDBRANCH   6  22
BRANCH   8  24
HETATM   24  O   UNK N   1     203.108 205.423 223.308  0.00  0.00    -0.360 OA
HETATM   25  H   UNK N   1     202.813 204.616 223.738  0.00  0.00     0.217 HD
ENDBRANCH   8  24
BRANCH  10  26
HETATM   26  O   UNK N   1     203.983 203.295 219.177  0.00  0.00    -0.361 OA
HETATM   27  H   UNK N   1     203.235 203.111 218.590  0.00  0.00     0.217 HD
ENDBRANCH  10  26
TORSDOF 6
ENDMDL
MODEL 8
REMARK VINA RESULT:      -5.5      1.664      2.794
REMARK  6 active torsions:
REMARK  status: ('A' for Active; 'I' for Inactive)
REMARK    1  A    between atoms: O_2  and  C_12 
REMARK    2  A    between atoms: O_3  and  C_14 
REMARK    3  A    between atoms: O_5  and  C_16 
REMARK    4  A    between atoms: O_6  and  C_20 
REMARK    5  A    between atoms: O_7  and  C_22 
REMARK    6  A    between atoms: C_10  and  C_11 
ROOT
HETATM    1  O   UNK N   1     202.795 208.672 221.910  0.00  0.00    -0.306 OA
HETATM    2  O   UNK N   1     201.298 211.071 219.129  0.00  0.00    -0.284 OA
HETATM    3  C   UNK N   1     201.180 210.333 221.310  0.00  0.00     0.084 A 
HETATM    4  C   UNK N   1     201.772 209.446 222.253  0.00  0.00     0.096 A 
HETATM    5  C   UNK N   1     203.330 208.670 220.697  0.00  0.00     0.123 A 
HETATM    6  C   UNK N   1     202.815 209.512 219.697  0.00  0.00     0.152 A 
HETATM    7  C   UNK N   1     201.737 210.348 220.002  0.00  0.00     0.223 A 
HETATM    8  C   UNK N   1     200.076 211.143 221.740  0.00  0.00     0.085 A 
HETATM    9  C   UNK N   1     201.289 209.370 223.560  0.00  0.00     0.075 A 
HETATM   10  C   UNK N   1     200.218 210.158 223.966  0.00  0.00     0.071 A 
HETATM   11  C   UNK N   1     199.619 211.037 223.061  0.00  0.00     0.074 A 
ENDROOT
BRANCH   5  12
HETATM   12  C   UNK N   1     204.461 207.773 220.434  0.00  0.00     0.004 A 
HETATM   13  C   UNK N   1     204.344 206.762 219.474  0.00  0.00     0.053 A 
HETATM   14  C   UNK N   1     205.422 205.911 219.202  0.00  0.00     0.099 A 
HETATM   15  C   UNK N   1     206.645 206.091 219.902  0.00  0.00     0.098 A 
HETATM   16  C   UNK N   1     206.743 207.098 220.870  0.00  0.00     0.040 A 
HETATM   17  C   UNK N   1     205.658 207.935 221.136  0.00  0.00     0.017 A 
BRANCH  14  18
HETATM   18  O   UNK N   1     205.252 204.940 218.277  0.00  0.00    -0.358 OA
HETATM   19  H   UNK N   1     204.571 204.259 218.328  0.00  0.00     0.218 HD
ENDBRANCH  14  18
BRANCH  15  20
HETATM   20  O   UNK N   1     207.734 205.327 219.661  0.00  0.00    -0.358 OA
HETATM   21  H   UNK N   1     208.245 205.358 218.844  0.00  0.00     0.218 HD
ENDBRANCH  15  20
ENDBRANCH   5  12
BRANCH   6  22
HETATM   22  O   UNK N   1     203.340 209.529 218.449  0.00  0.00    -0.355 OA
HETATM   23  H   UNK N   1     203.305 208.768 217.853  0.00  0.00     0.218 HD
ENDBRANCH   6  22
BRANCH   8  24
HETATM   24  O   UNK N   1     199.428 212.025 220.943  0.00  0.00    -0.360 OA
HETATM   25  H   UNK N   1     198.562 211.910 220.543  0.00  0.00     0.217 HD
ENDBRANCH   8  24
BRANCH  10  26
HETATM   26  O   UNK N   1     199.768 210.067 225.234  0.00  0.00    -0.361 OA
HETATM   27  H   UNK N   1     199.692 209.215 225.689  0.00  0.00     0.217 HD
ENDBRANCH  10  26
TORSDOF 6
ENDMDL
MODEL 9
REMARK VINA RESULT:      -5.5     22.359     24.324
REMARK  6 active torsions:
REMARK  status: ('A' for Active; 'I' for Inactive)
REMARK    1  A    between atoms: O_2  and  C_12 
REMARK    2  A    between atoms: O_3  and  C_14 
REMARK    3  A    between atoms: O_5  and  C_16 
REMARK    4  A    between atoms: O_6  and  C_20 
REMARK    5  A    between atoms: O_7  and  C_22 
REMARK    6  A    between atoms: C_10  and  C_11 
ROOT
HETATM    1  O   UNK N   1     220.965 210.931 236.839  0.00  0.00    -0.306 OA
HETATM    2  O   UNK N   1     223.150 213.988 238.110  0.00  0.00    -0.284 OA
HETATM    3  C   UNK N   1     222.656 212.559 236.369  0.00  0.00     0.084 A 
HETATM    4  C   UNK N   1     221.836 211.461 235.987  0.00  0.00     0.096 A 
HETATM    5  C   UNK N   1     220.798 211.377 238.076  0.00  0.00     0.123 A 
HETATM    6  C   UNK N   1     221.561 212.458 238.546  0.00  0.00     0.152 A 
HETATM    7  C   UNK N   1     222.494 213.054 237.693  0.00  0.00     0.223 A 
HETATM    8  C   UNK N   1     223.579 213.086 235.404  0.00  0.00     0.085 A 
HETATM    9  C   UNK N   1     221.929 210.914 234.705  0.00  0.00     0.075 A 
HETATM   10  C   UNK N   1     222.827 211.432 233.779  0.00  0.00     0.071 A 
HETATM   11  C   UNK N   1     223.643 212.510 234.129  0.00  0.00     0.074 A 
ENDROOT
BRANCH   5  12
HETATM   12  C   UNK N   1     219.803 210.714 238.927  0.00  0.00     0.004 A 
HETATM   13  C   UNK N   1     218.669 211.415 239.353  0.00  0.00     0.053 A 
HETATM   14  C   UNK N   1     217.704 210.789 240.151  0.00  0.00     0.099 A 
HETATM   15  C   UNK N   1     217.879 209.427 240.516  0.00  0.00     0.098 A 
HETATM   16  C   UNK N   1     219.025 208.743 240.095  0.00  0.00     0.040 A 
HETATM   17  C   UNK N   1     219.984 209.382 239.305  0.00  0.00     0.017 A 
BRANCH  14  18
HETATM   18  O   UNK N   1     216.635 211.514 240.548  0.00  0.00    -0.358 OA
HETATM   19  H   UNK N   1     216.696 212.382 240.965  0.00  0.00     0.218 HD
ENDBRANCH  14  18
BRANCH  15  20
HETATM   20  O   UNK N   1     216.968 208.754 241.254  0.00  0.00    -0.358 OA
HETATM   21  H   UNK N   1     217.194 208.157 241.977  0.00  0.00     0.218 HD
ENDBRANCH  15  20
ENDBRANCH   5  12
BRANCH   6  22
HETATM   22  O   UNK N   1     221.412 212.933 239.806  0.00  0.00    -0.355 OA
HETATM   23  H   UNK N   1     221.520 213.868 240.032  0.00  0.00     0.218 HD
ENDBRANCH   6  22
BRANCH   8  24
HETATM   24  O   UNK N   1     224.411 214.127 235.643  0.00  0.00    -0.360 OA
HETATM   25  H   UNK N   1     224.494 214.621 236.463  0.00  0.00     0.217 HD
ENDBRANCH   8  24
BRANCH  10  26
HETATM   26  O   UNK N   1     222.900 210.887 232.547  0.00  0.00    -0.361 OA
HETATM   27  H   UNK N   1     222.890 209.928 232.412  0.00  0.00     0.217 HD
ENDBRANCH  10  26
TORSDOF 6
ENDMDL
