MODEL 1
REMARK VINA RESULT:      -6.5      0.000      0.000
REMARK  5 active torsions:
REMARK  status: ('A' for Active; 'I' for Inactive)
REMARK    1  A    between atoms: O_2  and  C_11 
REMARK    2  A    between atoms: O_3  and  C_13 
REMARK    3  A    between atoms: O_5  and  C_15 
REMARK    4  A    between atoms: O_6  and  C_21 
REMARK    5  A    between atoms: C_9  and  C_12 
ROOT
HETATM    1  O   UNK N   1     204.646 207.345 221.734  0.00  0.00    -0.306 OA
HETATM    2  O   UNK N   1     203.387 207.952 218.021  0.00  0.00    -0.284 OA
HETATM    3  C   UNK N   1     203.145 208.477 220.254  0.00  0.00     0.084 A 
HETATM    4  C   UNK N   1     203.652 208.206 221.556  0.00  0.00     0.096 A 
HETATM    5  C   UNK N   1     205.224 206.691 220.736  0.00  0.00     0.123 A 
HETATM    6  C   UNK N   1     203.751 207.786 219.170  0.00  0.00     0.223 A 
HETATM    7  C   UNK N   1     204.795 206.890 219.415  0.00  0.00     0.152 A 
HETATM    8  C   UNK N   1     202.070 209.417 220.126  0.00  0.00     0.085 A 
HETATM    9  C   UNK N   1     203.112 208.840 222.676  0.00  0.00     0.075 A 
HETATM   10  C   UNK N   1     202.069 209.749 222.540  0.00  0.00     0.071 A 
HETATM   11  C   UNK N   1     201.555 210.032 221.272  0.00  0.00     0.074 A 
ENDROOT
BRANCH   5  12
HETATM   12  C   UNK N   1     206.318 205.772 221.049  0.00  0.00     0.001 A 
HETATM   13  C   UNK N   1     207.644 206.213 220.969  0.00  0.00     0.017 A 
HETATM   14  C   UNK N   1     208.689 205.340 221.282  0.00  0.00     0.037 A 
HETATM   15  C   UNK N   1     208.411 204.022 221.675  0.00  0.00     0.065 A 
HETATM   16  C   UNK N   1     207.084 203.582 221.747  0.00  0.00     0.037 A 
HETATM   17  C   UNK N   1     206.038 204.455 221.436  0.00  0.00     0.017 A 
BRANCH  15  18
HETATM   18  O   UNK N   1     209.412 203.175 221.986  0.00  0.00    -0.361 OA
HETATM   19  H   UNK N   1     210.072 202.910 221.329  0.00  0.00     0.217 HD
ENDBRANCH  15  18
ENDBRANCH   5  12
BRANCH   7  20
HETATM   20  O   UNK N   1     205.369 206.236 218.378  0.00  0.00    -0.355 OA
HETATM   21  H   UNK N   1     205.227 205.294 218.207  0.00  0.00     0.218 HD
ENDBRANCH   7  20
BRANCH   8  22
HETATM   22  O   UNK N   1     201.503 209.761 218.945  0.00  0.00    -0.360 OA
HETATM   23  H   UNK N   1     201.581 209.291 218.112  0.00  0.00     0.217 HD
ENDBRANCH   8  22
BRANCH  10  24
HETATM   24  O   UNK N   1     201.561 210.350 223.635  0.00  0.00    -0.361 OA
HETATM   25  H   UNK N   1     200.967 211.111 223.568  0.00  0.00     0.217 HD
ENDBRANCH  10  24
TORSDOF 5
ENDMDL
MODEL 2
REMARK VINA RESULT:      -6.1     22.569     23.953
REMARK  5 active torsions:
REMARK  status: ('A' for Active; 'I' for Inactive)
REMARK    1  A    between atoms: O_2  and  C_11 
REMARK    2  A    between atoms: O_3  and  C_13 
REMARK    3  A    between atoms: O_5  and  C_15 
REMARK    4  A    between atoms: O_6  and  C_21 
REMARK    5  A    between atoms: C_9  and  C_12 
ROOT
HETATM    1  O   UNK N   1     222.079 211.113 235.304  0.00  0.00    -0.306 OA
HETATM    2  O   UNK N   1     222.996 214.881 236.143  0.00  0.00    -0.284 OA
HETATM    3  C   UNK N   1     223.198 213.126 234.659  0.00  0.00     0.084 A 
HETATM    4  C   UNK N   1     222.828 211.772 234.429  0.00  0.00     0.096 A 
HETATM    5  C   UNK N   1     221.633 211.656 236.429  0.00  0.00     0.123 A 
HETATM    6  C   UNK N   1     222.732 213.727 235.859  0.00  0.00     0.223 A 
HETATM    7  C   UNK N   1     221.946 212.987 236.746  0.00  0.00     0.152 A 
HETATM    8  C   UNK N   1     224.008 213.785 233.676  0.00  0.00     0.085 A 
HETATM    9  C   UNK N   1     223.245 211.105 233.276  0.00  0.00     0.075 A 
HETATM   10  C   UNK N   1     224.032 211.753 232.330  0.00  0.00     0.071 A 
HETATM   11  C   UNK N   1     224.408 213.083 232.533  0.00  0.00     0.074 A 
ENDROOT
BRANCH   5  12
HETATM   12  C   UNK N   1     220.809 210.838 237.317  0.00  0.00     0.001 A 
HETATM   13  C   UNK N   1     219.413 210.897 237.223  0.00  0.00     0.017 A 
HETATM   14  C   UNK N   1     218.624 210.106 238.060  0.00  0.00     0.037 A 
HETATM   15  C   UNK N   1     219.228 209.251 238.995  0.00  0.00     0.065 A 
HETATM   16  C   UNK N   1     220.623 209.199 239.091  0.00  0.00     0.037 A 
HETATM   17  C   UNK N   1     221.414 209.990 238.253  0.00  0.00     0.017 A 
BRANCH  15  18
HETATM   18  O   UNK N   1     218.474 208.477 239.802  0.00  0.00    -0.361 OA
HETATM   19  H   UNK N   1     218.261 207.562 239.570  0.00  0.00     0.217 HD
ENDBRANCH  15  18
ENDBRANCH   5  12
BRANCH   7  20
HETATM   20  O   UNK N   1     221.504 213.566 237.887  0.00  0.00    -0.355 OA
HETATM   21  H   UNK N   1     222.068 213.701 238.662  0.00  0.00     0.218 HD
ENDBRANCH   7  20
BRANCH   8  22
HETATM   22  O   UNK N   1     224.425 215.069 233.777  0.00  0.00    -0.360 OA
HETATM   23  H   UNK N   1     224.906 215.462 234.509  0.00  0.00     0.217 HD
ENDBRANCH   8  22
BRANCH  10  24
HETATM   24  O   UNK N   1     224.425 211.091 231.223  0.00  0.00    -0.361 OA
HETATM   25  H   UNK N   1     225.354 211.062 230.951  0.00  0.00     0.217 HD
ENDBRANCH  10  24
TORSDOF 5
ENDMDL
MODEL 3
REMARK VINA RESULT:      -5.9     22.317     23.801
REMARK  5 active torsions:
REMARK  status: ('A' for Active; 'I' for Inactive)
REMARK    1  A    between atoms: O_2  and  C_11 
REMARK    2  A    between atoms: O_3  and  C_13 
REMARK    3  A    between atoms: O_5  and  C_15 
REMARK    4  A    between atoms: O_6  and  C_21 
REMARK    5  A    between atoms: C_9  and  C_12 
ROOT
HETATM    1  O   UNK N   1     221.946 212.630 236.494  0.00  0.00    -0.306 OA
HETATM    2  O   UNK N   1     222.909 210.925 233.044  0.00  0.00    -0.284 OA
HETATM    3  C   UNK N   1     223.127 212.764 234.418  0.00  0.00     0.084 A 
HETATM    4  C   UNK N   1     222.737 213.309 235.673  0.00  0.00     0.096 A 
HETATM    5  C   UNK N   1     221.474 211.424 236.210  0.00  0.00     0.123 A 
HETATM    6  C   UNK N   1     222.631 211.473 234.093  0.00  0.00     0.223 A 
HETATM    7  C   UNK N   1     221.801 210.802 234.995  0.00  0.00     0.152 A 
HETATM    8  C   UNK N   1     223.983 213.546 233.574  0.00  0.00     0.085 A 
HETATM    9  C   UNK N   1     223.178 214.573 236.069  0.00  0.00     0.075 A 
HETATM   10  C   UNK N   1     224.008 215.323 235.242  0.00  0.00     0.071 A 
HETATM   11  C   UNK N   1     224.404 214.810 234.005  0.00  0.00     0.074 A 
ENDROOT
BRANCH   5  12
HETATM   12  C   UNK N   1     220.616 210.764 237.194  0.00  0.00     0.001 A 
HETATM   13  C   UNK N   1     219.242 211.035 237.214  0.00  0.00     0.017 A 
HETATM   14  C   UNK N   1     218.419 210.395 238.142  0.00  0.00     0.037 A 
HETATM   15  C   UNK N   1     218.967 209.481 239.056  0.00  0.00     0.065 A 
HETATM   16  C   UNK N   1     220.341 209.217 239.038  0.00  0.00     0.037 A 
HETATM   17  C   UNK N   1     221.166 209.856 238.107  0.00  0.00     0.017 A 
BRANCH  15  18
HETATM   18  O   UNK N   1     218.179 208.853 239.951  0.00  0.00    -0.361 OA
HETATM   19  H   UNK N   1     218.168 207.888 240.025  0.00  0.00     0.217 HD
ENDBRANCH  15  18
ENDBRANCH   5  12
BRANCH   7  20
HETATM   20  O   UNK N   1     221.332 209.571 234.681  0.00  0.00    -0.355 OA
HETATM   21  H   UNK N   1     221.882 208.886 234.275  0.00  0.00     0.218 HD
ENDBRANCH   7  20
BRANCH   8  22
HETATM   22  O   UNK N   1     224.425 213.141 232.360  0.00  0.00    -0.360 OA
HETATM   23  H   UNK N   1     225.295 212.791 232.153  0.00  0.00     0.217 HD
ENDBRANCH   8  22
BRANCH  10  24
HETATM   24  O   UNK N   1     224.422 216.542 235.643  0.00  0.00    -0.361 OA
HETATM   25  H   UNK N   1     223.939 217.347 235.405  0.00  0.00     0.217 HD
ENDBRANCH  10  24
TORSDOF 5
ENDMDL
MODEL 4
REMARK VINA RESULT:      -5.8      2.668      6.411
REMARK  5 active torsions:
REMARK  status: ('A' for Active; 'I' for Inactive)
REMARK    1  A    between atoms: O_2  and  C_11 
REMARK    2  A    between atoms: O_3  and  C_13 
REMARK    3  A    between atoms: O_5  and  C_15 
REMARK    4  A    between atoms: O_6  and  C_21 
REMARK    5  A    between atoms: C_9  and  C_12 
ROOT
HETATM    1  O   UNK N   1     206.900 206.382 220.521  0.00  0.00    -0.306 OA
HETATM    2  O   UNK N   1     203.399 204.676 221.275  0.00  0.00    -0.284 OA
HETATM    3  C   UNK N   1     205.696 204.512 221.402  0.00  0.00     0.084 A 
HETATM    4  C   UNK N   1     206.911 205.188 221.100  0.00  0.00     0.096 A 
HETATM    5  C   UNK N   1     205.783 207.016 220.191  0.00  0.00     0.123 A 
HETATM    6  C   UNK N   1     204.487 205.174 221.056  0.00  0.00     0.223 A 
HETATM    7  C   UNK N   1     204.534 206.431 220.448  0.00  0.00     0.152 A 
HETATM    8  C   UNK N   1     205.773 203.225 222.028  0.00  0.00     0.085 A 
HETATM    9  C   UNK N   1     208.144 204.608 221.405  0.00  0.00     0.075 A 
HETATM   10  C   UNK N   1     208.206 203.358 222.011  0.00  0.00     0.071 A 
HETATM   11  C   UNK N   1     207.027 202.675 222.318  0.00  0.00     0.074 A 
ENDROOT
BRANCH   5  12
HETATM   12  C   UNK N   1     205.891 208.333 219.564  0.00  0.00     0.001 A 
HETATM   13  C   UNK N   1     206.370 209.421 220.304  0.00  0.00     0.017 A 
HETATM   14  C   UNK N   1     206.487 210.675 219.703  0.00  0.00     0.037 A 
HETATM   15  C   UNK N   1     206.126 210.848 218.358  0.00  0.00     0.065 A 
HETATM   16  C   UNK N   1     205.641 209.760 217.622  0.00  0.00     0.037 A 
HETATM   17  C   UNK N   1     205.524 208.503 218.223  0.00  0.00     0.017 A 
BRANCH  15  18
HETATM   18  O   UNK N   1     206.243 212.054 217.767  0.00  0.00    -0.361 OA
HETATM   19  H   UNK N   1     205.696 212.299 217.006  0.00  0.00     0.217 HD
ENDBRANCH  15  18
ENDBRANCH   5  12
BRANCH   7  20
HETATM   20  O   UNK N   1     203.379 207.057 220.121  0.00  0.00    -0.355 OA
HETATM   21  H   UNK N   1     202.558 206.940 220.619  0.00  0.00     0.218 HD
ENDBRANCH   7  20
BRANCH   8  22
HETATM   22  O   UNK N   1     204.692 202.483 222.367  0.00  0.00    -0.360 OA
HETATM   23  H   UNK N   1     204.669 201.751 222.989  0.00  0.00     0.217 HD
ENDBRANCH   8  22
BRANCH  10  24
HETATM   24  O   UNK N   1     209.407 202.815 222.297  0.00  0.00    -0.361 OA
HETATM   25  H   UNK N   1     209.556 201.859 222.255  0.00  0.00     0.217 HD
ENDBRANCH  10  24
TORSDOF 5
ENDMDL
MODEL 5
REMARK VINA RESULT:      -5.3     23.008     24.076
REMARK  5 active torsions:
REMARK  status: ('A' for Active; 'I' for Inactive)
REMARK    1  A    between atoms: O_2  and  C_11 
REMARK    2  A    between atoms: O_3  and  C_13 
REMARK    3  A    between atoms: O_5  and  C_15 
REMARK    4  A    between atoms: O_6  and  C_21 
REMARK    5  A    between atoms: C_9  and  C_12 
ROOT
HETATM    1  O   UNK N   1     220.083 210.324 238.406  0.00  0.00    -0.306 OA
HETATM    2  O   UNK N   1     219.638 214.022 239.772  0.00  0.00    -0.284 OA
HETATM    3  C   UNK N   1     218.984 211.815 239.920  0.00  0.00     0.084 A 
HETATM    4  C   UNK N   1     219.200 210.518 239.377  0.00  0.00     0.096 A 
HETATM    5  C   UNK N   1     220.810 211.303 237.883  0.00  0.00     0.123 A 
HETATM    6  C   UNK N   1     219.752 212.878 239.374  0.00  0.00     0.223 A 
HETATM    7  C   UNK N   1     220.668 212.618 238.351  0.00  0.00     0.152 A 
HETATM    8  C   UNK N   1     218.017 211.961 240.968  0.00  0.00     0.085 A 
HETATM    9  C   UNK N   1     218.486 209.418 239.856  0.00  0.00     0.075 A 
HETATM   10  C   UNK N   1     217.550 209.571 240.872  0.00  0.00     0.071 A 
HETATM   11  C   UNK N   1     217.320 210.834 241.421  0.00  0.00     0.074 A 
ENDROOT
BRANCH   5  12
HETATM   12  C   UNK N   1     221.758 210.972 236.821  0.00  0.00     0.001 A 
HETATM   13  C   UNK N   1     222.995 210.399 237.143  0.00  0.00     0.017 A 
HETATM   14  C   UNK N   1     223.896 210.070 236.129  0.00  0.00     0.037 A 
HETATM   15  C   UNK N   1     223.565 210.312 234.787  0.00  0.00     0.065 A 
HETATM   16  C   UNK N   1     222.331 210.891 234.468  0.00  0.00     0.037 A 
HETATM   17  C   UNK N   1     221.428 211.220 235.482  0.00  0.00     0.017 A 
BRANCH  15  18
HETATM   18  O   UNK N   1     224.425 209.990 233.801  0.00  0.00    -0.361 OA
HETATM   19  H   UNK N   1     224.113 209.743 232.918  0.00  0.00     0.217 HD
ENDBRANCH  15  18
ENDBRANCH   5  12
BRANCH   7  20
HETATM   20  O   UNK N   1     221.398 213.635 237.835  0.00  0.00    -0.355 OA
HETATM   21  H   UNK N   1     222.335 213.768 238.038  0.00  0.00     0.218 HD
ENDBRANCH   7  20
BRANCH   8  22
HETATM   22  O   UNK N   1     217.722 213.138 241.567  0.00  0.00    -0.360 OA
HETATM   23  H   UNK N   1     216.855 213.437 241.851  0.00  0.00     0.217 HD
ENDBRANCH   8  22
BRANCH  10  24
HETATM   24  O   UNK N   1     216.870 208.495 241.319  0.00  0.00    -0.361 OA
HETATM   25  H   UNK N   1     215.963 208.568 241.650  0.00  0.00     0.217 HD
ENDBRANCH  10  24
TORSDOF 5
ENDMDL
MODEL 6
REMARK VINA RESULT:      -5.3      1.782      6.816
REMARK  5 active torsions:
REMARK  status: ('A' for Active; 'I' for Inactive)
REMARK    1  A    between atoms: O_2  and  C_11 
REMARK    2  A    between atoms: O_3  and  C_13 
REMARK    3  A    between atoms: O_5  and  C_15 
REMARK    4  A    between atoms: O_6  and  C_21 
REMARK    5  A    between atoms: C_9  and  C_12 
ROOT
HETATM    1  O   UNK N   1     205.081 207.285 220.792  0.00  0.00    -0.306 OA
HETATM    2  O   UNK N   1     203.771 203.757 222.047  0.00  0.00    -0.284 OA
HETATM    3  C   UNK N   1     205.589 205.038 221.437  0.00  0.00     0.084 A 
HETATM    4  C   UNK N   1     205.981 206.330 220.988  0.00  0.00     0.096 A 
HETATM    5  C   UNK N   1     203.782 207.109 220.997  0.00  0.00     0.123 A 
HETATM    6  C   UNK N   1     204.202 204.827 221.662  0.00  0.00     0.223 A 
HETATM    7  C   UNK N   1     203.297 205.869 221.440  0.00  0.00     0.152 A 
HETATM    8  C   UNK N   1     206.608 204.048 221.629  0.00  0.00     0.085 A 
HETATM    9  C   UNK N   1     207.324 206.621 220.741  0.00  0.00     0.075 A 
HETATM   10  C   UNK N   1     208.303 205.653 220.929  0.00  0.00     0.071 A 
HETATM   11  C   UNK N   1     207.943 204.377 221.370  0.00  0.00     0.074 A 
ENDROOT
BRANCH   5  12
HETATM   12  C   UNK N   1     202.881 208.235 220.757  0.00  0.00     0.001 A 
HETATM   13  C   UNK N   1     202.509 208.564 219.448  0.00  0.00     0.017 A 
HETATM   14  C   UNK N   1     201.637 209.629 219.218  0.00  0.00     0.037 A 
HETATM   15  C   UNK N   1     201.133 210.372 220.297  0.00  0.00     0.065 A 
HETATM   16  C   UNK N   1     201.513 210.046 221.604  0.00  0.00     0.037 A 
HETATM   17  C   UNK N   1     202.384 208.978 221.835  0.00  0.00     0.017 A 
BRANCH  15  18
HETATM   18  O   UNK N   1     200.285 211.398 220.085  0.00  0.00    -0.361 OA
HETATM   19  H   UNK N   1     200.585 212.318 220.121  0.00  0.00     0.217 HD
ENDBRANCH  15  18
ENDBRANCH   5  12
BRANCH   7  20
HETATM   20  O   UNK N   1     201.977 205.662 221.657  0.00  0.00    -0.355 OA
HETATM   21  H   UNK N   1     201.289 205.964 221.047  0.00  0.00     0.218 HD
ENDBRANCH   7  20
BRANCH   8  22
HETATM   22  O   UNK N   1     206.366 202.785 222.054  0.00  0.00    -0.360 OA
HETATM   23  H   UNK N   1     205.506 202.384 222.202  0.00  0.00     0.217 HD
ENDBRANCH   8  22
BRANCH  10  24
HETATM   24  O   UNK N   1     209.595 205.955 220.684  0.00  0.00    -0.361 OA
HETATM   25  H   UNK N   1     209.847 206.585 219.994  0.00  0.00     0.217 HD
ENDBRANCH  10  24
TORSDOF 5
ENDMDL
MODEL 7
REMARK VINA RESULT:      -5.2     23.287     24.405
REMARK  5 active torsions:
REMARK  status: ('A' for Active; 'I' for Inactive)
REMARK    1  A    between atoms: O_2  and  C_11 
REMARK    2  A    between atoms: O_3  and  C_13 
REMARK    3  A    between atoms: O_5  and  C_15 
REMARK    4  A    between atoms: O_6  and  C_21 
REMARK    5  A    between atoms: C_9  and  C_12 
ROOT
HETATM    1  O   UNK N   1     219.964 212.037 238.278  0.00  0.00    -0.306 OA
HETATM    2  O   UNK N   1     221.350 208.703 239.922  0.00  0.00    -0.284 OA
HETATM    3  C   UNK N   1     219.634 210.241 239.823  0.00  0.00     0.084 A 
HETATM    4  C   UNK N   1     219.206 211.441 239.188  0.00  0.00     0.096 A 
HETATM    5  C   UNK N   1     221.147 211.569 237.902  0.00  0.00     0.123 A 
HETATM    6  C   UNK N   1     220.899 209.723 239.436  0.00  0.00     0.223 A 
HETATM    7  C   UNK N   1     221.657 210.392 238.471  0.00  0.00     0.152 A 
HETATM    8  C   UNK N   1     218.770 209.644 240.799  0.00  0.00     0.085 A 
HETATM    9  C   UNK N   1     217.977 212.018 239.512  0.00  0.00     0.075 A 
HETATM   10  C   UNK N   1     217.148 211.430 240.460  0.00  0.00     0.071 A 
HETATM   11  C   UNK N   1     217.546 210.252 241.097  0.00  0.00     0.074 A 
ENDROOT
BRANCH   5  12
HETATM   12  C   UNK N   1     221.894 212.306 236.883  0.00  0.00     0.001 A 
HETATM   13  C   UNK N   1     222.743 213.353 237.261  0.00  0.00     0.017 A 
HETATM   14  C   UNK N   1     223.468 214.047 236.291  0.00  0.00     0.037 A 
HETATM   15  C   UNK N   1     223.347 213.698 234.937  0.00  0.00     0.065 A 
HETATM   16  C   UNK N   1     222.493 212.655 234.562  0.00  0.00     0.037 A 
HETATM   17  C   UNK N   1     221.768 211.958 235.532  0.00  0.00     0.017 A 
BRANCH  15  18
HETATM   18  O   UNK N   1     224.049 214.357 233.995  0.00  0.00    -0.361 OA
HETATM   19  H   UNK N   1     224.912 214.751 234.190  0.00  0.00     0.217 HD
ENDBRANCH  15  18
ENDBRANCH   5  12
BRANCH   7  20
HETATM   20  O   UNK N   1     222.862 209.894 238.106  0.00  0.00    -0.355 OA
HETATM   21  H   UNK N   1     223.684 210.400 238.173  0.00  0.00     0.218 HD
ENDBRANCH   7  20
BRANCH   8  22
HETATM   22  O   UNK N   1     219.061 208.504 241.470  0.00  0.00    -0.360 OA
HETATM   23  H   UNK N   1     218.611 208.164 242.247  0.00  0.00     0.217 HD
ENDBRANCH   8  22
BRANCH  10  24
HETATM   24  O   UNK N   1     215.964 212.004 240.759  0.00  0.00    -0.361 OA
HETATM   25  H   UNK N   1     215.129 211.522 240.673  0.00  0.00     0.217 HD
ENDBRANCH  10  24
TORSDOF 5
ENDMDL
MODEL 8
REMARK VINA RESULT:      -5.2      2.983      5.853
REMARK  5 active torsions:
REMARK  status: ('A' for Active; 'I' for Inactive)
REMARK    1  A    between atoms: O_2  and  C_11 
REMARK    2  A    between atoms: O_3  and  C_13 
REMARK    3  A    between atoms: O_5  and  C_15 
REMARK    4  A    between atoms: O_6  and  C_21 
REMARK    5  A    between atoms: C_9  and  C_12 
ROOT
HETATM    1  O   UNK N   1     205.523 207.004 220.639  0.00  0.00    -0.306 OA
HETATM    2  O   UNK N   1     202.207 207.567 222.744  0.00  0.00    -0.284 OA
HETATM    3  C   UNK N   1     203.858 206.093 222.096  0.00  0.00     0.084 A 
HETATM    4  C   UNK N   1     205.043 205.969 221.318  0.00  0.00     0.096 A 
HETATM    5  C   UNK N   1     204.947 208.198 220.638  0.00  0.00     0.123 A 
HETATM    6  C   UNK N   1     203.224 207.364 222.108  0.00  0.00     0.223 A 
HETATM    7  C   UNK N   1     203.773 208.420 221.375  0.00  0.00     0.152 A 
HETATM    8  C   UNK N   1     203.389 204.939 222.806  0.00  0.00     0.085 A 
HETATM    9  C   UNK N   1     205.727 204.754 221.250  0.00  0.00     0.075 A 
HETATM   10  C   UNK N   1     205.262 203.642 221.942  0.00  0.00     0.071 A 
HETATM   11  C   UNK N   1     204.102 203.738 222.713  0.00  0.00     0.074 A 
ENDROOT
BRANCH   5  12
HETATM   12  C   UNK N   1     205.568 209.269 219.860  0.00  0.00     0.001 A 
HETATM   13  C   UNK N   1     205.133 209.526 218.554  0.00  0.00     0.017 A 
HETATM   14  C   UNK N   1     205.715 210.557 217.815  0.00  0.00     0.037 A 
HETATM   15  C   UNK N   1     206.736 211.337 218.378  0.00  0.00     0.065 A 
HETATM   16  C   UNK N   1     207.175 211.074 219.681  0.00  0.00     0.037 A 
HETATM   17  C   UNK N   1     206.591 210.042 220.423  0.00  0.00     0.017 A 
BRANCH  15  18
HETATM   18  O   UNK N   1     207.299 212.340 217.675  0.00  0.00    -0.361 OA
HETATM   19  H   UNK N   1     207.363 212.306 216.710  0.00  0.00     0.217 HD
ENDBRANCH  15  18
ENDBRANCH   5  12
BRANCH   7  20
HETATM   20  O   UNK N   1     203.165 209.630 221.391  0.00  0.00    -0.355 OA
HETATM   21  H   UNK N   1     202.443 209.864 220.790  0.00  0.00     0.218 HD
ENDBRANCH   7  20
BRANCH   8  22
HETATM   22  O   UNK N   1     202.279 204.927 223.581  0.00  0.00    -0.360 OA
HETATM   23  H   UNK N   1     201.931 205.657 224.099  0.00  0.00     0.217 HD
ENDBRANCH   8  22
BRANCH  10  24
HETATM   24  O   UNK N   1     205.938 202.477 221.862  0.00  0.00    -0.361 OA
HETATM   25  H   UNK N   1     206.905 202.447 221.888  0.00  0.00     0.217 HD
ENDBRANCH  10  24
TORSDOF 5
ENDMDL
MODEL 9
REMARK VINA RESULT:      -5.1     22.686     24.231
REMARK  5 active torsions:
REMARK  status: ('A' for Active; 'I' for Inactive)
REMARK    1  A    between atoms: O_2  and  C_11 
REMARK    2  A    between atoms: O_3  and  C_13 
REMARK    3  A    between atoms: O_5  and  C_15 
REMARK    4  A    between atoms: O_6  and  C_21 
REMARK    5  A    between atoms: C_9  and  C_12 
ROOT
HETATM    1  O   UNK N   1     221.689 210.016 238.033  0.00  0.00    -0.306 OA
HETATM    2  O   UNK N   1     217.957 211.249 238.575  0.00  0.00    -0.284 OA
HETATM    3  C   UNK N   1     219.657 209.863 239.287  0.00  0.00     0.084 A 
HETATM    4  C   UNK N   1     221.001 209.472 239.029  0.00  0.00     0.096 A 
HETATM    5  C   UNK N   1     221.185 210.940 237.226  0.00  0.00     0.123 A 
HETATM    6  C   UNK N   1     219.098 210.851 238.433  0.00  0.00     0.223 A 
HETATM    7  C   UNK N   1     219.868 211.390 237.398  0.00  0.00     0.152 A 
HETATM    8  C   UNK N   1     218.966 209.239 240.377  0.00  0.00     0.085 A 
HETATM    9  C   UNK N   1     221.626 208.506 239.819  0.00  0.00     0.075 A 
HETATM   10  C   UNK N   1     220.946 207.907 240.873  0.00  0.00     0.071 A 
HETATM   11  C   UNK N   1     219.626 208.274 241.147  0.00  0.00     0.074 A 
ENDROOT
BRANCH   5  12
HETATM   12  C   UNK N   1     222.037 211.475 236.165  0.00  0.00     0.001 A 
HETATM   13  C   UNK N   1     222.096 210.828 234.924  0.00  0.00     0.017 A 
HETATM   14  C   UNK N   1     222.898 211.346 233.905  0.00  0.00     0.037 A 
HETATM   15  C   UNK N   1     223.646 212.514 234.122  0.00  0.00     0.065 A 
HETATM   16  C   UNK N   1     223.590 213.154 235.366  0.00  0.00     0.037 A 
HETATM   17  C   UNK N   1     222.787 212.637 236.386  0.00  0.00     0.017 A 
BRANCH  15  18
HETATM   18  O   UNK N   1     224.416 213.025 233.142  0.00  0.00    -0.361 OA
HETATM   19  H   UNK N   1     225.307 212.687 232.971  0.00  0.00     0.217 HD
ENDBRANCH  15  18
ENDBRANCH   5  12
BRANCH   7  20
HETATM   20  O   UNK N   1     219.329 212.332 236.589  0.00  0.00    -0.355 OA
HETATM   21  H   UNK N   1     218.388 212.556 236.595  0.00  0.00     0.218 HD
ENDBRANCH   7  20
BRANCH   8  22
HETATM   22  O   UNK N   1     217.689 209.524 240.726  0.00  0.00    -0.360 OA
HETATM   23  H   UNK N   1     217.081 208.950 241.198  0.00  0.00     0.217 HD
ENDBRANCH   8  22
BRANCH  10  24
HETATM   24  O   UNK N   1     221.568 206.975 241.624  0.00  0.00    -0.361 OA
HETATM   25  H   UNK N   1     221.078 206.400 242.230  0.00  0.00     0.217 HD
ENDBRANCH  10  24
TORSDOF 5
ENDMDL
