MODEL 1
REMARK VINA RESULT:      -5.9      0.000      0.000
REMARK  16 active torsions:
REMARK  status: ('A' for Active; 'I' for Inactive)
REMARK    1  A    between atoms: O_2  and  C_22 
REMARK    2  A    between atoms: O_2  and  C_26 
REMARK    3  A    between atoms: O_4  and  C_18 
REMARK    4  A    between atoms: O_5  and  C_19 
REMARK    5  A    between atoms: O_6  and  C_25 
REMARK    6  A    between atoms: O_6  and  C_29 
REMARK    7  A    between atoms: O_7  and  C_20 
REMARK    8  A    between atoms: O_8  and  C_21 
REMARK    9  A    between atoms: O_9  and  C_23 
REMARK   10  A    between atoms: O_10  and  C_24 
REMARK   11  A    between atoms: O_13  and  C_35 
REMARK   12  A    between atoms: O_14  and  C_40 
REMARK   13  A    between atoms: O_15  and  C_41 
REMARK   14  A    between atoms: O_16  and  C_43 
REMARK   15  A    between atoms: C_17  and  C_26 
REMARK   16  A    between atoms: C_30  and  C_33 
ROOT
HETATM    1  O   UNK N   1     203.116 207.911 220.605  0.00  0.00    -0.348 OA
HETATM    2  C   UNK N   1     202.667 207.531 221.885  0.00  0.00     0.180 C 
HETATM    3  C   UNK N   1     201.123 207.629 221.954  0.00  0.00     0.180 C 
HETATM    4  C   UNK N   1     200.699 209.081 221.649  0.00  0.00     0.183 C 
HETATM    5  C   UNK N   1     201.297 209.491 220.292  0.00  0.00     0.205 C 
HETATM    6  C   UNK N   1     202.823 209.259 220.295  0.00  0.00     0.298 C 
ENDROOT
BRANCH   6   7
HETATM    7  O   UNK N   1     203.295 209.477 219.017  0.00  0.00    -0.311 OA
BRANCH   7   8
HETATM    8  C   UNK N   1     204.270 210.377 218.698  0.00  0.00     0.157 A 
HETATM    9  C   UNK N   1     205.610 209.963 218.765  0.00  0.00     0.124 A 
HETATM   10  O   UNK N   1     206.594 210.814 218.492  0.00  0.00    -0.306 OA
HETATM   11  C   UNK N   1     206.378 212.089 218.186  0.00  0.00     0.096 A 
HETATM   12  C   UNK N   1     205.062 212.593 218.078  0.00  0.00     0.084 A 
HETATM   13  C   UNK N   1     207.473 212.942 218.006  0.00  0.00     0.075 A 
HETATM   14  C   UNK N   1     203.991 211.710 218.324  0.00  0.00     0.223 A 
HETATM   15  C   UNK N   1     204.865 213.959 217.752  0.00  0.00     0.085 A 
HETATM   16  O   UNK N   1     202.840 212.096 218.235  0.00  0.00    -0.284 OA
HETATM   17  C   UNK N   1     205.977 214.796 217.578  0.00  0.00     0.074 A 
HETATM   18  C   UNK N   1     207.276 214.294 217.714  0.00  0.00     0.071 A 
BRANCH   9  19
HETATM   19  C   UNK N   1     205.960 208.613 219.258  0.00  0.00     0.004 A 
HETATM   20  C   UNK N   1     205.816 207.502 218.409  0.00  0.00     0.053 A 
HETATM   21  C   UNK N   1     206.090 206.210 218.866  0.00  0.00     0.099 A 
HETATM   22  C   UNK N   1     206.555 206.026 220.194  0.00  0.00     0.098 A 
HETATM   23  C   UNK N   1     206.706 207.141 221.030  0.00  0.00     0.040 A 
HETATM   24  C   UNK N   1     206.390 208.423 220.574  0.00  0.00     0.017 A 
BRANCH  21  25
HETATM   25  O   UNK N   1     205.885 205.177 218.019  0.00  0.00    -0.358 OA
HETATM   26  H   UNK N   1     205.811 205.266 217.061  0.00  0.00     0.218 HD
ENDBRANCH  21  25
BRANCH  22  27
HETATM   27  O   UNK N   1     206.856 204.806 220.692  0.00  0.00    -0.358 OA
HETATM   28  H   UNK N   1     206.259 204.048 220.666  0.00  0.00     0.218 HD
ENDBRANCH  22  27
ENDBRANCH   9  19
BRANCH  15  29
HETATM   29  O   UNK N   1     203.621 214.467 217.622  0.00  0.00    -0.360 OA
HETATM   30  H   UNK N   1     202.944 214.038 217.078  0.00  0.00     0.217 HD
ENDBRANCH  15  29
BRANCH  18  31
HETATM   31  O   UNK N   1     208.344 215.104 217.575  0.00  0.00    -0.361 OA
HETATM   32  H   UNK N   1     208.264 215.986 217.183  0.00  0.00     0.217 HD
ENDBRANCH  18  31
ENDBRANCH   7   8
ENDBRANCH   6   7
BRANCH   5  33
HETATM   33  O   UNK N   1     200.981 210.824 219.975  0.00  0.00    -0.388 OA
HETATM   34  H   UNK N   1     200.219 210.810 219.339  0.00  0.00     0.210 HD
ENDBRANCH   5  33
BRANCH   2  35
HETATM   35  C   UNK N   1     203.169 206.100 222.102  0.00  0.00     0.205 C 
BRANCH  35  36
HETATM   36  O   UNK N   1     202.800 205.685 223.404  0.00  0.00    -0.356 OA
BRANCH  36  37
HETATM   37  C   UNK N   1     202.234 204.387 223.384  0.00  0.00     0.291 C 
HETATM   38  O   UNK N   1     202.616 203.613 224.521  0.00  0.00    -0.351 OA
HETATM   39  C   UNK N   1     204.025 203.416 224.594  0.00  0.00     0.152 C 
HETATM   40  C   UNK N   1     204.538 202.620 223.368  0.00  0.00     0.178 C 
HETATM   41  C   UNK N   1     204.332 202.664 225.891  0.00  0.00     0.042 C 
HETATM   42  C   UNK N   1     204.154 203.388 222.092  0.00  0.00     0.183 C 
HETATM   43  C   UNK N   1     202.637 203.666 222.076  0.00  0.00     0.204 C 
BRANCH  40  44
HETATM   44  O   UNK N   1     205.936 202.478 223.419  0.00  0.00    -0.390 OA
HETATM   45  H   UNK N   1     206.210 201.971 222.610  0.00  0.00     0.210 HD
ENDBRANCH  40  44
BRANCH  42  46
HETATM   46  O   UNK N   1     204.568 202.714 220.928  0.00  0.00    -0.390 OA
HETATM   47  H   UNK N   1     205.389 202.201 221.149  0.00  0.00     0.210 HD
ENDBRANCH  42  46
BRANCH  43  48
HETATM   48  O   UNK N   1     201.900 202.477 221.895  0.00  0.00    -0.388 OA
HETATM   49  H   UNK N   1     200.945 202.652 222.092  0.00  0.00     0.210 HD
ENDBRANCH  43  48
ENDBRANCH  36  37
ENDBRANCH  35  36
ENDBRANCH   2  35
BRANCH   4  50
HETATM   50  O   UNK N   1     199.300 209.187 221.597  0.00  0.00    -0.390 OA
HETATM   51  H   UNK N   1     199.086 209.799 220.846  0.00  0.00     0.210 HD
ENDBRANCH   4  50
BRANCH   3  52
HETATM   52  O   UNK N   1     200.636 207.215 223.205  0.00  0.00    -0.390 OA
HETATM   53  H   UNK N   1     199.813 207.737 223.394  0.00  0.00     0.210 HD
ENDBRANCH   3  52
TORSDOF 16
ENDMDL
MODEL 2
REMARK VINA RESULT:      -5.8      3.568      7.819
REMARK  16 active torsions:
REMARK  status: ('A' for Active; 'I' for Inactive)
REMARK    1  A    between atoms: O_2  and  C_22 
REMARK    2  A    between atoms: O_2  and  C_26 
REMARK    3  A    between atoms: O_4  and  C_18 
REMARK    4  A    between atoms: O_5  and  C_19 
REMARK    5  A    between atoms: O_6  and  C_25 
REMARK    6  A    between atoms: O_6  and  C_29 
REMARK    7  A    between atoms: O_7  and  C_20 
REMARK    8  A    between atoms: O_8  and  C_21 
REMARK    9  A    between atoms: O_9  and  C_23 
REMARK   10  A    between atoms: O_10  and  C_24 
REMARK   11  A    between atoms: O_13  and  C_35 
REMARK   12  A    between atoms: O_14  and  C_40 
REMARK   13  A    between atoms: O_15  and  C_41 
REMARK   14  A    between atoms: O_16  and  C_43 
REMARK   15  A    between atoms: C_17  and  C_26 
REMARK   16  A    between atoms: C_30  and  C_33 
ROOT
HETATM    1  O   UNK N   1     203.425 206.165 218.926  0.00  0.00    -0.348 OA
HETATM    2  C   UNK N   1     202.915 207.168 218.078  0.00  0.00     0.180 C 
HETATM    3  C   UNK N   1     201.491 206.786 217.607  0.00  0.00     0.180 C 
HETATM    4  C   UNK N   1     201.554 205.437 216.861  0.00  0.00     0.183 C 
HETATM    5  C   UNK N   1     202.212 204.397 217.784  0.00  0.00     0.205 C 
HETATM    6  C   UNK N   1     203.579 204.919 218.278  0.00  0.00     0.298 C 
ENDROOT
BRANCH   6   7
HETATM    7  O   UNK N   1     204.057 204.040 219.229  0.00  0.00    -0.311 OA
BRANCH   7   8
HETATM    8  C   UNK N   1     203.589 203.958 220.508  0.00  0.00     0.157 A 
HETATM    9  C   UNK N   1     204.439 204.345 221.557  0.00  0.00     0.124 A 
HETATM   10  O   UNK N   1     204.036 204.253 222.820  0.00  0.00    -0.306 OA
HETATM   11  C   UNK N   1     202.848 203.766 223.164  0.00  0.00     0.096 A 
HETATM   12  C   UNK N   1     201.918 203.368 222.176  0.00  0.00     0.084 A 
HETATM   13  C   UNK N   1     202.538 203.616 224.519  0.00  0.00     0.075 A 
HETATM   14  C   UNK N   1     202.296 203.485 220.822  0.00  0.00     0.223 A 
HETATM   15  C   UNK N   1     200.660 202.849 222.574  0.00  0.00     0.085 A 
HETATM   16  O   UNK N   1     201.526 203.162 219.937  0.00  0.00    -0.284 OA
HETATM   17  C   UNK N   1     200.372 202.705 223.939  0.00  0.00     0.074 A 
HETATM   18  C   UNK N   1     201.310 203.076 224.909  0.00  0.00     0.071 A 
BRANCH   9  19
HETATM   19  C   UNK N   1     205.837 204.742 221.289  0.00  0.00     0.004 A 
HETATM   20  C   UNK N   1     206.892 203.944 221.763  0.00  0.00     0.053 A 
HETATM   21  C   UNK N   1     208.224 204.323 221.568  0.00  0.00     0.099 A 
HETATM   22  C   UNK N   1     208.510 205.512 220.849  0.00  0.00     0.098 A 
HETATM   23  C   UNK N   1     207.451 206.297 220.370  0.00  0.00     0.040 A 
HETATM   24  C   UNK N   1     206.124 205.927 220.606  0.00  0.00     0.017 A 
BRANCH  21  25
HETATM   25  O   UNK N   1     209.193 203.540 222.092  0.00  0.00    -0.358 OA
HETATM   26  H   UNK N   1     209.635 202.828 221.613  0.00  0.00     0.218 HD
ENDBRANCH  21  25
BRANCH  22  27
HETATM   27  O   UNK N   1     209.774 205.926 220.609  0.00  0.00    -0.358 OA
HETATM   28  H   UNK N   1     210.029 206.479 219.860  0.00  0.00     0.218 HD
ENDBRANCH  22  27
ENDBRANCH   9  19
BRANCH  15  29
HETATM   29  O   UNK N   1     199.742 202.477 221.656  0.00  0.00    -0.360 OA
HETATM   30  H   UNK N   1     198.827 202.273 221.898  0.00  0.00     0.217 HD
ENDBRANCH  15  29
BRANCH  18  31
HETATM   31  O   UNK N   1     201.044 202.912 226.220  0.00  0.00    -0.361 OA
HETATM   32  H   UNK N   1     200.298 202.374 226.524  0.00  0.00     0.217 HD
ENDBRANCH  18  31
ENDBRANCH   7   8
ENDBRANCH   6   7
BRANCH   5  33
HETATM   33  O   UNK N   1     202.339 203.151 217.145  0.00  0.00    -0.388 OA
HETATM   34  H   UNK N   1     201.855 202.480 217.694  0.00  0.00     0.210 HD
ENDBRANCH   5  33
BRANCH   2  35
HETATM   35  C   UNK N   1     202.930 208.463 218.896  0.00  0.00     0.205 C 
BRANCH  35  36
HETATM   36  O   UNK N   1     201.949 208.365 219.911  0.00  0.00    -0.356 OA
BRANCH  36  37
HETATM   37  C   UNK N   1     202.414 207.586 220.999  0.00  0.00     0.291 C 
HETATM   38  O   UNK N   1     201.354 207.166 221.857  0.00  0.00    -0.351 OA
HETATM   39  C   UNK N   1     200.663 208.266 222.442  0.00  0.00     0.152 C 
HETATM   40  C   UNK N   1     201.608 209.102 223.340  0.00  0.00     0.178 C 
HETATM   41  C   UNK N   1     199.494 207.711 223.260  0.00  0.00     0.042 C 
HETATM   42  C   UNK N   1     202.792 209.586 222.486  0.00  0.00     0.183 C 
HETATM   43  C   UNK N   1     203.473 208.388 221.794  0.00  0.00     0.204 C 
BRANCH  40  44
HETATM   44  O   UNK N   1     200.932 210.216 223.869  0.00  0.00    -0.390 OA
HETATM   45  H   UNK N   1     201.560 210.674 224.489  0.00  0.00     0.210 HD
ENDBRANCH  40  44
BRANCH  42  46
HETATM   46  O   UNK N   1     203.711 210.338 223.241  0.00  0.00    -0.390 OA
HETATM   47  H   UNK N   1     204.487 210.545 222.657  0.00  0.00     0.210 HD
ENDBRANCH  42  46
BRANCH  43  48
HETATM   48  O   UNK N   1     204.143 207.571 222.727  0.00  0.00    -0.388 OA
HETATM   49  H   UNK N   1     205.071 207.413 222.417  0.00  0.00     0.210 HD
ENDBRANCH  43  48
ENDBRANCH  36  37
ENDBRANCH  35  36
ENDBRANCH   2  35
BRANCH   4  50
HETATM   50  O   UNK N   1     200.266 205.005 216.510  0.00  0.00    -0.390 OA
HETATM   51  H   UNK N   1     200.367 204.402 215.728  0.00  0.00     0.210 HD
ENDBRANCH   4  50
BRANCH   3  52
HETATM   52  O   UNK N   1     200.933 207.785 216.791  0.00  0.00    -0.390 OA
HETATM   53  H   UNK N   1     199.965 207.842 217.007  0.00  0.00     0.210 HD
ENDBRANCH   3  52
TORSDOF 16
ENDMDL
MODEL 3
REMARK VINA RESULT:      -5.3      1.005      2.045
REMARK  16 active torsions:
REMARK  status: ('A' for Active; 'I' for Inactive)
REMARK    1  A    between atoms: O_2  and  C_22 
REMARK    2  A    between atoms: O_2  and  C_26 
REMARK    3  A    between atoms: O_4  and  C_18 
REMARK    4  A    between atoms: O_5  and  C_19 
REMARK    5  A    between atoms: O_6  and  C_25 
REMARK    6  A    between atoms: O_6  and  C_29 
REMARK    7  A    between atoms: O_7  and  C_20 
REMARK    8  A    between atoms: O_8  and  C_21 
REMARK    9  A    between atoms: O_9  and  C_23 
REMARK   10  A    between atoms: O_10  and  C_24 
REMARK   11  A    between atoms: O_13  and  C_35 
REMARK   12  A    between atoms: O_14  and  C_40 
REMARK   13  A    between atoms: O_15  and  C_41 
REMARK   14  A    between atoms: O_16  and  C_43 
REMARK   15  A    between atoms: C_17  and  C_26 
REMARK   16  A    between atoms: C_30  and  C_33 
ROOT
HETATM    1  O   UNK N   1     203.364 208.754 220.888  0.00  0.00    -0.348 OA
HETATM    2  C   UNK N   1     202.704 208.611 222.124  0.00  0.00     0.180 C 
HETATM    3  C   UNK N   1     201.360 207.869 221.922  0.00  0.00     0.180 C 
HETATM    4  C   UNK N   1     200.485 208.674 220.940  0.00  0.00     0.183 C 
HETATM    5  C   UNK N   1     201.282 208.897 219.644  0.00  0.00     0.205 C 
HETATM    6  C   UNK N   1     202.644 209.548 219.967  0.00  0.00     0.298 C 
ENDROOT
BRANCH   6   7
HETATM    7  O   UNK N   1     203.393 209.578 218.808  0.00  0.00    -0.311 OA
BRANCH   7   8
HETATM    8  C   UNK N   1     204.369 210.495 218.544  0.00  0.00     0.157 A 
HETATM    9  C   UNK N   1     205.710 210.101 218.681  0.00  0.00     0.124 A 
HETATM   10  O   UNK N   1     206.693 210.970 218.463  0.00  0.00    -0.306 OA
HETATM   11  C   UNK N   1     206.473 212.242 218.149  0.00  0.00     0.096 A 
HETATM   12  C   UNK N   1     205.156 212.725 217.972  0.00  0.00     0.084 A 
HETATM   13  C   UNK N   1     207.561 213.113 218.029  0.00  0.00     0.075 A 
HETATM   14  C   UNK N   1     204.088 211.824 218.158  0.00  0.00     0.223 A 
HETATM   15  C   UNK N   1     204.954 214.088 217.639  0.00  0.00     0.085 A 
HETATM   16  O   UNK N   1     202.937 212.192 218.009  0.00  0.00    -0.284 OA
HETATM   17  C   UNK N   1     206.060 214.944 217.527  0.00  0.00     0.074 A 
HETATM   18  C   UNK N   1     207.358 214.462 217.731  0.00  0.00     0.071 A 
BRANCH   9  19
HETATM   19  C   UNK N   1     206.055 208.756 219.188  0.00  0.00     0.004 A 
HETATM   20  C   UNK N   1     205.871 207.632 218.365  0.00  0.00     0.053 A 
HETATM   21  C   UNK N   1     206.140 206.344 218.837  0.00  0.00     0.099 A 
HETATM   22  C   UNK N   1     206.641 206.177 220.153  0.00  0.00     0.098 A 
HETATM   23  C   UNK N   1     206.833 207.305 220.964  0.00  0.00     0.040 A 
HETATM   24  C   UNK N   1     206.522 208.584 220.494  0.00  0.00     0.017 A 
BRANCH  21  25
HETATM   25  O   UNK N   1     205.895 205.299 218.015  0.00  0.00    -0.358 OA
HETATM   26  H   UNK N   1     205.325 204.553 218.239  0.00  0.00     0.218 HD
ENDBRANCH  21  25
BRANCH  22  27
HETATM   27  O   UNK N   1     206.940 204.962 220.665  0.00  0.00    -0.358 OA
HETATM   28  H   UNK N   1     206.893 204.139 220.165  0.00  0.00     0.218 HD
ENDBRANCH  22  27
ENDBRANCH   9  19
BRANCH  15  29
HETATM   29  O   UNK N   1     203.711 214.577 217.445  0.00  0.00    -0.360 OA
HETATM   30  H   UNK N   1     203.404 214.872 216.576  0.00  0.00     0.217 HD
ENDBRANCH  15  29
BRANCH  18  31
HETATM   31  O   UNK N   1     208.419 215.291 217.650  0.00  0.00    -0.361 OA
HETATM   32  H   UNK N   1     209.020 215.273 216.892  0.00  0.00     0.217 HD
ENDBRANCH  18  31
ENDBRANCH   7   8
ENDBRANCH   6   7
BRANCH   5  33
HETATM   33  O   UNK N   1     200.553 209.666 218.720  0.00  0.00    -0.388 OA
HETATM   34  H   UNK N   1     201.201 210.217 218.208  0.00  0.00     0.210 HD
ENDBRANCH   5  33
BRANCH   2  35
HETATM   35  C   UNK N   1     203.666 207.836 223.030  0.00  0.00     0.205 C 
BRANCH  35  36
HETATM   36  O   UNK N   1     203.132 206.545 223.256  0.00  0.00    -0.356 OA
BRANCH  36  37
HETATM   37  C   UNK N   1     203.978 205.542 222.723  0.00  0.00     0.291 C 
HETATM   38  O   UNK N   1     203.858 205.432 221.305  0.00  0.00    -0.351 OA
HETATM   39  C   UNK N   1     202.540 205.077 220.898  0.00  0.00     0.152 C 
HETATM   40  C   UNK N   1     202.144 203.686 221.451  0.00  0.00     0.178 C 
HETATM   41  C   UNK N   1     202.498 205.081 219.368  0.00  0.00     0.042 C 
HETATM   42  C   UNK N   1     202.257 203.718 222.984  0.00  0.00     0.183 C 
HETATM   43  C   UNK N   1     203.666 204.187 223.402  0.00  0.00     0.204 C 
BRANCH  40  44
HETATM   44  O   UNK N   1     200.822 203.368 221.092  0.00  0.00    -0.390 OA
HETATM   45  H   UNK N   1     200.329 204.225 220.992  0.00  0.00     0.210 HD
ENDBRANCH  40  44
BRANCH  42  46
HETATM   46  O   UNK N   1     201.934 202.477 223.562  0.00  0.00    -0.390 OA
HETATM   47  H   UNK N   1     202.269 201.763 222.958  0.00  0.00     0.210 HD
ENDBRANCH  42  46
BRANCH  43  48
HETATM   48  O   UNK N   1     204.642 203.218 223.089  0.00  0.00    -0.388 OA
HETATM   49  H   UNK N   1     205.408 203.659 222.640  0.00  0.00     0.210 HD
ENDBRANCH  43  48
ENDBRANCH  36  37
ENDBRANCH  35  36
ENDBRANCH   2  35
BRANCH   4  50
HETATM   50  O   UNK N   1     199.300 207.979 220.650  0.00  0.00    -0.390 OA
HETATM   51  H   UNK N   1     199.141 207.354 221.404  0.00  0.00     0.210 HD
ENDBRANCH   4  50
BRANCH   3  52
HETATM   52  O   UNK N   1     200.694 207.670 223.144  0.00  0.00    -0.390 OA
HETATM   53  H   UNK N   1     199.768 207.376 222.935  0.00  0.00     0.210 HD
ENDBRANCH   3  52
TORSDOF 16
ENDMDL
MODEL 4
REMARK VINA RESULT:      -4.8      1.937      2.718
REMARK  16 active torsions:
REMARK  status: ('A' for Active; 'I' for Inactive)
REMARK    1  A    between atoms: O_2  and  C_22 
REMARK    2  A    between atoms: O_2  and  C_26 
REMARK    3  A    between atoms: O_4  and  C_18 
REMARK    4  A    between atoms: O_5  and  C_19 
REMARK    5  A    between atoms: O_6  and  C_25 
REMARK    6  A    between atoms: O_6  and  C_29 
REMARK    7  A    between atoms: O_7  and  C_20 
REMARK    8  A    between atoms: O_8  and  C_21 
REMARK    9  A    between atoms: O_9  and  C_23 
REMARK   10  A    between atoms: O_10  and  C_24 
REMARK   11  A    between atoms: O_13  and  C_35 
REMARK   12  A    between atoms: O_14  and  C_40 
REMARK   13  A    between atoms: O_15  and  C_41 
REMARK   14  A    between atoms: O_16  and  C_43 
REMARK   15  A    between atoms: C_17  and  C_26 
REMARK   16  A    between atoms: C_30  and  C_33 
ROOT
HETATM    1  O   UNK N   1     202.512 207.154 220.340  0.00  0.00    -0.348 OA
HETATM    2  C   UNK N   1     202.085 206.641 221.581  0.00  0.00     0.180 C 
HETATM    3  C   UNK N   1     200.791 207.362 222.032  0.00  0.00     0.180 C 
HETATM    4  C   UNK N   1     201.073 208.874 222.148  0.00  0.00     0.183 C 
HETATM    5  C   UNK N   1     201.635 209.371 220.805  0.00  0.00     0.205 C 
HETATM    6  C   UNK N   1     202.858 208.523 220.398  0.00  0.00     0.298 C 
ENDROOT
BRANCH   6   7
HETATM    7  O   UNK N   1     203.229 208.886 219.119  0.00  0.00    -0.311 OA
BRANCH   7   8
HETATM    8  C   UNK N   1     204.159 209.842 218.828  0.00  0.00     0.157 A 
HETATM    9  C   UNK N   1     205.518 209.499 218.917  0.00  0.00     0.124 A 
HETATM   10  O   UNK N   1     206.459 210.406 218.671  0.00  0.00    -0.306 OA
HETATM   11  C   UNK N   1     206.180 211.671 218.373  0.00  0.00     0.096 A 
HETATM   12  C   UNK N   1     204.840 212.103 218.245  0.00  0.00     0.084 A 
HETATM   13  C   UNK N   1     207.229 212.583 218.222  0.00  0.00     0.075 A 
HETATM   14  C   UNK N   1     203.814 211.161 218.461  0.00  0.00     0.223 A 
HETATM   15  C   UNK N   1     204.575 213.460 217.928  0.00  0.00     0.085 A 
HETATM   16  O   UNK N   1     202.646 211.485 218.354  0.00  0.00    -0.284 OA
HETATM   17  C   UNK N   1     205.643 214.358 217.784  0.00  0.00     0.074 A 
HETATM   18  C   UNK N   1     206.964 213.926 217.941  0.00  0.00     0.071 A 
BRANCH   9  19
HETATM   19  C   UNK N   1     205.931 208.166 219.403  0.00  0.00     0.004 A 
HETATM   20  C   UNK N   1     206.073 207.105 218.492  0.00  0.00     0.053 A 
HETATM   21  C   UNK N   1     206.412 205.822 218.932  0.00  0.00     0.099 A 
HETATM   22  C   UNK N   1     206.653 205.601 220.312  0.00  0.00     0.098 A 
HETATM   23  C   UNK N   1     206.519 206.667 221.212  0.00  0.00     0.040 A 
HETATM   24  C   UNK N   1     206.141 207.936 220.765  0.00  0.00     0.017 A 
BRANCH  21  25
HETATM   25  O   UNK N   1     206.485 204.832 218.014  0.00  0.00    -0.358 OA
HETATM   26  H   UNK N   1     206.607 203.899 218.228  0.00  0.00     0.218 HD
ENDBRANCH  21  25
BRANCH  22  27
HETATM   27  O   UNK N   1     207.002 204.390 220.801  0.00  0.00    -0.358 OA
HETATM   28  H   UNK N   1     207.914 204.093 220.907  0.00  0.00     0.218 HD
ENDBRANCH  22  27
ENDBRANCH   9  19
BRANCH  15  29
HETATM   29  O   UNK N   1     203.308 213.902 217.780  0.00  0.00    -0.360 OA
HETATM   30  H   UNK N   1     202.558 213.294 217.697  0.00  0.00     0.217 HD
ENDBRANCH  15  29
BRANCH  18  31
HETATM   31  O   UNK N   1     207.989 214.795 217.830  0.00  0.00    -0.361 OA
HETATM   32  H   UNK N   1     207.915 215.710 218.138  0.00  0.00     0.217 HD
ENDBRANCH  18  31
ENDBRANCH   7   8
ENDBRANCH   6   7
BRANCH   5  33
HETATM   33  O   UNK N   1     201.954 210.739 220.859  0.00  0.00    -0.388 OA
HETATM   34  H   UNK N   1     201.435 211.141 221.604  0.00  0.00     0.210 HD
ENDBRANCH   5  33
BRANCH   2  35
HETATM   35  C   UNK N   1     201.871 205.139 221.368  0.00  0.00     0.205 C 
BRANCH  35  36
HETATM   36  O   UNK N   1     200.613 204.947 220.748  0.00  0.00    -0.356 OA
BRANCH  36  37
HETATM   37  C   UNK N   1     200.546 203.683 220.112  0.00  0.00     0.291 C 
HETATM   38  O   UNK N   1     201.794 202.992 220.146  0.00  0.00    -0.351 OA
HETATM   39  C   UNK N   1     202.827 203.706 219.471  0.00  0.00     0.152 C 
HETATM   40  C   UNK N   1     202.494 203.874 217.968  0.00  0.00     0.178 C 
HETATM   41  C   UNK N   1     204.135 202.931 219.650  0.00  0.00     0.042 C 
HETATM   42  C   UNK N   1     201.147 204.606 217.844  0.00  0.00     0.183 C 
HETATM   43  C   UNK N   1     200.063 203.863 218.653  0.00  0.00     0.204 C 
BRANCH  40  44
HETATM   44  O   UNK N   1     203.490 204.627 217.321  0.00  0.00    -0.390 OA
HETATM   45  H   UNK N   1     203.939 204.024 216.671  0.00  0.00     0.210 HD
ENDBRANCH  40  44
BRANCH  42  46
HETATM   46  O   UNK N   1     200.763 204.777 216.502  0.00  0.00    -0.390 OA
HETATM   47  H   UNK N   1     200.275 205.639 216.432  0.00  0.00     0.210 HD
ENDBRANCH  42  46
BRANCH  43  48
HETATM   48  O   UNK N   1     199.741 202.625 218.060  0.00  0.00    -0.388 OA
HETATM   49  H   UNK N   1     198.849 202.332 218.377  0.00  0.00     0.210 HD
ENDBRANCH  43  48
ENDBRANCH  36  37
ENDBRANCH  35  36
ENDBRANCH   2  35
BRANCH   4  50
HETATM   50  O   UNK N   1     199.895 209.575 222.452  0.00  0.00    -0.390 OA
HETATM   51  H   UNK N   1     200.136 210.265 223.123  0.00  0.00     0.210 HD
ENDBRANCH   4  50
BRANCH   3  52
HETATM   52  O   UNK N   1     200.311 206.845 223.248  0.00  0.00    -0.390 OA
HETATM   53  H   UNK N   1     201.084 206.448 223.730  0.00  0.00     0.210 HD
ENDBRANCH   3  52
TORSDOF 16
ENDMDL
MODEL 5
REMARK VINA RESULT:      -4.6      2.693      9.176
REMARK  16 active torsions:
REMARK  status: ('A' for Active; 'I' for Inactive)
REMARK    1  A    between atoms: O_2  and  C_22 
REMARK    2  A    between atoms: O_2  and  C_26 
REMARK    3  A    between atoms: O_4  and  C_18 
REMARK    4  A    between atoms: O_5  and  C_19 
REMARK    5  A    between atoms: O_6  and  C_25 
REMARK    6  A    between atoms: O_6  and  C_29 
REMARK    7  A    between atoms: O_7  and  C_20 
REMARK    8  A    between atoms: O_8  and  C_21 
REMARK    9  A    between atoms: O_9  and  C_23 
REMARK   10  A    between atoms: O_10  and  C_24 
REMARK   11  A    between atoms: O_13  and  C_35 
REMARK   12  A    between atoms: O_14  and  C_40 
REMARK   13  A    between atoms: O_15  and  C_41 
REMARK   14  A    between atoms: O_16  and  C_43 
REMARK   15  A    between atoms: C_17  and  C_26 
REMARK   16  A    between atoms: C_30  and  C_33 
ROOT
HETATM    1  O   UNK N   1     205.643 205.663 220.668  0.00  0.00    -0.348 OA
HETATM    2  C   UNK N   1     206.793 206.454 220.854  0.00  0.00     0.180 C 
HETATM    3  C   UNK N   1     208.064 205.601 220.624  0.00  0.00     0.180 C 
HETATM    4  C   UNK N   1     208.062 204.420 221.617  0.00  0.00     0.183 C 
HETATM    5  C   UNK N   1     206.745 203.644 221.453  0.00  0.00     0.205 C 
HETATM    6  C   UNK N   1     205.544 204.604 221.600  0.00  0.00     0.298 C 
ENDROOT
BRANCH   6   7
HETATM    7  O   UNK N   1     204.395 203.909 221.282  0.00  0.00    -0.311 OA
BRANCH   7   8
HETATM    8  C   UNK N   1     203.414 203.591 222.176  0.00  0.00     0.157 A 
HETATM    9  C   UNK N   1     202.078 203.645 221.748  0.00  0.00     0.124 A 
HETATM   10  O   UNK N   1     201.088 203.373 222.593  0.00  0.00    -0.306 OA
HETATM   11  C   UNK N   1     201.293 203.079 223.873  0.00  0.00     0.096 A 
HETATM   12  C   UNK N   1     202.606 202.985 224.390  0.00  0.00     0.084 A 
HETATM   13  C   UNK N   1     200.193 202.898 224.717  0.00  0.00     0.075 A 
HETATM   14  C   UNK N   1     203.684 203.231 223.514  0.00  0.00     0.223 A 
HETATM   15  C   UNK N   1     202.793 202.672 225.760  0.00  0.00     0.085 A 
HETATM   16  O   UNK N   1     204.832 203.153 223.912  0.00  0.00    -0.284 OA
HETATM   17  C   UNK N   1     201.674 202.497 226.589  0.00  0.00     0.074 A 
HETATM   18  C   UNK N   1     200.379 202.620 226.073  0.00  0.00     0.071 A 
BRANCH   9  19
HETATM   19  C   UNK N   1     201.737 204.123 220.392  0.00  0.00     0.004 A 
HETATM   20  C   UNK N   1     202.433 203.619 219.279  0.00  0.00     0.053 A 
HETATM   21  C   UNK N   1     202.166 204.093 217.991  0.00  0.00     0.099 A 
HETATM   22  C   UNK N   1     201.153 205.067 217.804  0.00  0.00     0.098 A 
HETATM   23  C   UNK N   1     200.456 205.557 218.918  0.00  0.00     0.040 A 
HETATM   24  C   UNK N   1     200.760 205.105 220.205  0.00  0.00     0.017 A 
BRANCH  21  25
HETATM   25  O   UNK N   1     202.904 203.606 216.968  0.00  0.00    -0.358 OA
HETATM   26  H   UNK N   1     203.821 203.848 216.795  0.00  0.00     0.218 HD
ENDBRANCH  21  25
BRANCH  22  27
HETATM   27  O   UNK N   1     200.832 205.553 216.584  0.00  0.00    -0.358 OA
HETATM   28  H   UNK N   1     200.681 206.487 216.397  0.00  0.00     0.218 HD
ENDBRANCH  22  27
ENDBRANCH   9  19
BRANCH  15  29
HETATM   29  O   UNK N   1     204.033 202.556 226.281  0.00  0.00    -0.360 OA
HETATM   30  H   UNK N   1     204.773 203.098 225.971  0.00  0.00     0.217 HD
ENDBRANCH  15  29
BRANCH  18  31
HETATM   31  O   UNK N   1     199.305 202.480 226.875  0.00  0.00    -0.361 OA
HETATM   32  H   UNK N   1     199.393 202.428 227.838  0.00  0.00     0.217 HD
ENDBRANCH  18  31
ENDBRANCH   7   8
ENDBRANCH   6   7
BRANCH   5  33
HETATM   33  O   UNK N   1     206.662 202.577 222.364  0.00  0.00    -0.388 OA
HETATM   34  H   UNK N   1     206.075 202.864 223.112  0.00  0.00     0.210 HD
ENDBRANCH   5  33
BRANCH   2  35
HETATM   35  C   UNK N   1     206.678 207.609 219.854  0.00  0.00     0.205 C 
BRANCH  35  36
HETATM   36  O   UNK N   1     205.310 207.810 219.554  0.00  0.00    -0.356 OA
BRANCH  36  37
HETATM   37  C   UNK N   1     204.980 209.188 219.576  0.00  0.00     0.291 C 
HETATM   38  O   UNK N   1     204.898 209.704 220.904  0.00  0.00    -0.351 OA
HETATM   39  C   UNK N   1     203.892 209.056 221.676  0.00  0.00     0.152 C 
HETATM   40  C   UNK N   1     202.488 209.285 221.063  0.00  0.00     0.178 C 
HETATM   41  C   UNK N   1     203.954 209.613 223.101  0.00  0.00     0.042 C 
HETATM   42  C   UNK N   1     202.495 208.762 219.617  0.00  0.00     0.183 C 
HETATM   43  C   UNK N   1     203.647 209.412 218.823  0.00  0.00     0.204 C 
BRANCH  40  44
HETATM   44  O   UNK N   1     201.507 208.597 221.799  0.00  0.00    -0.390 OA
HETATM   45  H   UNK N   1     201.883 207.706 222.030  0.00  0.00     0.210 HD
ENDBRANCH  40  44
BRANCH  42  46
HETATM   46  O   UNK N   1     201.255 208.956 218.981  0.00  0.00    -0.390 OA
HETATM   47  H   UNK N   1     201.040 209.924 219.023  0.00  0.00     0.210 HD
ENDBRANCH  42  46
BRANCH  43  48
HETATM   48  O   UNK N   1     203.405 210.784 218.601  0.00  0.00    -0.388 OA
HETATM   49  H   UNK N   1     202.439 210.970 218.723  0.00  0.00     0.210 HD
ENDBRANCH  43  48
ENDBRANCH  36  37
ENDBRANCH  35  36
ENDBRANCH   2  35
BRANCH   4  50
HETATM   50  O   UNK N   1     209.146 203.563 221.369  0.00  0.00    -0.390 OA
HETATM   51  H   UNK N   1     209.867 203.821 222.000  0.00  0.00     0.210 HD
ENDBRANCH   4  50
BRANCH   3  52
HETATM   52  O   UNK N   1     209.232 206.370 220.760  0.00  0.00    -0.390 OA
HETATM   53  H   UNK N   1     209.151 207.149 220.149  0.00  0.00     0.210 HD
ENDBRANCH   3  52
TORSDOF 16
ENDMDL
MODEL 6
REMARK VINA RESULT:      -4.1      2.285      9.453
REMARK  16 active torsions:
REMARK  status: ('A' for Active; 'I' for Inactive)
REMARK    1  A    between atoms: O_2  and  C_22 
REMARK    2  A    between atoms: O_2  and  C_26 
REMARK    3  A    between atoms: O_4  and  C_18 
REMARK    4  A    between atoms: O_5  and  C_19 
REMARK    5  A    between atoms: O_6  and  C_25 
REMARK    6  A    between atoms: O_6  and  C_29 
REMARK    7  A    between atoms: O_7  and  C_20 
REMARK    8  A    between atoms: O_8  and  C_21 
REMARK    9  A    between atoms: O_9  and  C_23 
REMARK   10  A    between atoms: O_10  and  C_24 
REMARK   11  A    between atoms: O_13  and  C_35 
REMARK   12  A    between atoms: O_14  and  C_40 
REMARK   13  A    between atoms: O_15  and  C_41 
REMARK   14  A    between atoms: O_16  and  C_43 
REMARK   15  A    between atoms: C_17  and  C_26 
REMARK   16  A    between atoms: C_30  and  C_33 
ROOT
HETATM    1  O   UNK N   1     205.547 206.346 220.864  0.00  0.00    -0.348 OA
HETATM    2  C   UNK N   1     206.695 207.121 221.120  0.00  0.00     0.180 C 
HETATM    3  C   UNK N   1     207.963 206.343 220.691  0.00  0.00     0.180 C 
HETATM    4  C   UNK N   1     208.027 205.016 221.476  0.00  0.00     0.183 C 
HETATM    5  C   UNK N   1     206.712 204.250 221.252  0.00  0.00     0.205 C 
HETATM    6  C   UNK N   1     205.509 205.148 221.613  0.00  0.00     0.298 C 
ENDROOT
BRANCH   6   7
HETATM    7  O   UNK N   1     204.354 204.491 221.241  0.00  0.00    -0.311 OA
BRANCH   7   8
HETATM    8  C   UNK N   1     203.379 204.095 222.111  0.00  0.00     0.157 A 
HETATM    9  C   UNK N   1     202.038 204.265 221.732  0.00  0.00     0.124 A 
HETATM   10  O   UNK N   1     201.055 203.921 222.559  0.00  0.00    -0.306 OA
HETATM   11  C   UNK N   1     201.275 203.445 223.780  0.00  0.00     0.096 A 
HETATM   12  C   UNK N   1     202.593 203.224 224.242  0.00  0.00     0.084 A 
HETATM   13  C   UNK N   1     200.186 203.197 224.622  0.00  0.00     0.075 A 
HETATM   14  C   UNK N   1     203.661 203.542 223.379  0.00  0.00     0.223 A 
HETATM   15  C   UNK N   1     202.794 202.717 225.551  0.00  0.00     0.085 A 
HETATM   16  O   UNK N   1     204.813 203.361 223.730  0.00  0.00    -0.284 OA
HETATM   17  C   UNK N   1     201.688 202.478 226.379  0.00  0.00     0.074 A 
HETATM   18  C   UNK N   1     200.389 202.726 225.921  0.00  0.00     0.071 A 
BRANCH   9  19
HETATM   19  C   UNK N   1     201.690 204.940 220.464  0.00  0.00     0.004 A 
HETATM   20  C   UNK N   1     200.956 206.138 220.490  0.00  0.00     0.053 A 
HETATM   21  C   UNK N   1     200.570 206.770 219.304  0.00  0.00     0.099 A 
HETATM   22  C   UNK N   1     200.958 206.210 218.060  0.00  0.00     0.098 A 
HETATM   23  C   UNK N   1     201.699 205.020 218.043  0.00  0.00     0.040 A 
HETATM   24  C   UNK N   1     202.045 204.377 219.235  0.00  0.00     0.017 A 
BRANCH  21  25
HETATM   25  O   UNK N   1     199.822 207.892 219.394  0.00  0.00    -0.358 OA
HETATM   26  H   UNK N   1     198.880 207.937 219.189  0.00  0.00     0.218 HD
ENDBRANCH  21  25
BRANCH  22  27
HETATM   27  O   UNK N   1     200.634 206.780 216.878  0.00  0.00    -0.358 OA
HETATM   28  H   UNK N   1     200.935 207.653 216.598  0.00  0.00     0.218 HD
ENDBRANCH  22  27
ENDBRANCH   9  19
BRANCH  15  29
HETATM   29  O   UNK N   1     204.039 202.477 226.016  0.00  0.00    -0.360 OA
HETATM   30  H   UNK N   1     204.218 202.336 226.957  0.00  0.00     0.217 HD
ENDBRANCH  15  29
BRANCH  18  31
HETATM   31  O   UNK N   1     199.327 202.523 226.726  0.00  0.00    -0.361 OA
HETATM   32  H   UNK N   1     198.419 202.572 226.392  0.00  0.00     0.217 HD
ENDBRANCH  18  31
ENDBRANCH   7   8
ENDBRANCH   6   7
BRANCH   5  33
HETATM   33  O   UNK N   1     206.690 203.047 221.978  0.00  0.00    -0.388 OA
HETATM   34  H   UNK N   1     207.631 202.785 222.157  0.00  0.00     0.210 HD
ENDBRANCH   5  33
BRANCH   2  35
HETATM   35  C   UNK N   1     206.514 208.421 220.330  0.00  0.00     0.205 C 
BRANCH  35  36
HETATM   36  O   UNK N   1     205.190 208.466 219.835  0.00  0.00    -0.356 OA
BRANCH  36  37
HETATM   37  C   UNK N   1     205.175 208.500 218.419  0.00  0.00     0.291 C 
HETATM   38  O   UNK N   1     205.801 209.672 217.899  0.00  0.00    -0.351 OA
HETATM   39  C   UNK N   1     205.148 210.867 218.317  0.00  0.00     0.152 C 
HETATM   40  C   UNK N   1     203.691 210.915 217.793  0.00  0.00     0.178 C 
HETATM   41  C   UNK N   1     205.951 212.058 217.788  0.00  0.00     0.042 C 
HETATM   42  C   UNK N   1     202.945 209.671 218.304  0.00  0.00     0.183 C 
HETATM   43  C   UNK N   1     203.716 208.393 217.914  0.00  0.00     0.204 C 
BRANCH  40  44
HETATM   44  O   UNK N   1     203.036 212.070 218.255  0.00  0.00    -0.390 OA
HETATM   45  H   UNK N   1     202.360 212.320 217.571  0.00  0.00     0.210 HD
ENDBRANCH  40  44
BRANCH  42  46
HETATM   46  O   UNK N   1     201.615 209.631 217.848  0.00  0.00    -0.390 OA
HETATM   47  H   UNK N   1     201.633 209.611 216.856  0.00  0.00     0.210 HD
ENDBRANCH  42  46
BRANCH  43  48
HETATM   48  O   UNK N   1     203.668 208.171 216.522  0.00  0.00    -0.388 OA
HETATM   49  H   UNK N   1     204.293 208.793 216.070  0.00  0.00     0.210 HD
ENDBRANCH  43  48
ENDBRANCH  36  37
ENDBRANCH  35  36
ENDBRANCH   2  35
BRANCH   4  50
HETATM   50  O   UNK N   1     209.107 204.234 221.037  0.00  0.00    -0.390 OA
HETATM   51  H   UNK N   1     209.628 204.792 220.404  0.00  0.00     0.210 HD
ENDBRANCH   4  50
BRANCH   3  52
HETATM   52  O   UNK N   1     209.127 207.104 220.894  0.00  0.00    -0.390 OA
HETATM   53  H   UNK N   1     209.895 206.475 220.920  0.00  0.00     0.210 HD
ENDBRANCH   3  52
TORSDOF 16
ENDMDL
MODEL 7
REMARK VINA RESULT:      -3.1      2.520      4.803
REMARK  16 active torsions:
REMARK  status: ('A' for Active; 'I' for Inactive)
REMARK    1  A    between atoms: O_2  and  C_22 
REMARK    2  A    between atoms: O_2  and  C_26 
REMARK    3  A    between atoms: O_4  and  C_18 
REMARK    4  A    between atoms: O_5  and  C_19 
REMARK    5  A    between atoms: O_6  and  C_25 
REMARK    6  A    between atoms: O_6  and  C_29 
REMARK    7  A    between atoms: O_7  and  C_20 
REMARK    8  A    between atoms: O_8  and  C_21 
REMARK    9  A    between atoms: O_9  and  C_23 
REMARK   10  A    between atoms: O_10  and  C_24 
REMARK   11  A    between atoms: O_13  and  C_35 
REMARK   12  A    between atoms: O_14  and  C_40 
REMARK   13  A    between atoms: O_15  and  C_41 
REMARK   14  A    between atoms: O_16  and  C_43 
REMARK   15  A    between atoms: C_17  and  C_26 
REMARK   16  A    between atoms: C_30  and  C_33 
ROOT
HETATM    1  O   UNK N   1     204.923 206.515 220.004  0.00  0.00    -0.348 OA
HETATM    2  C   UNK N   1     204.979 205.767 221.196  0.00  0.00     0.180 C 
HETATM    3  C   UNK N   1     203.799 206.157 222.119  0.00  0.00     0.180 C 
HETATM    4  C   UNK N   1     203.882 207.665 222.431  0.00  0.00     0.183 C 
HETATM    5  C   UNK N   1     203.924 208.439 221.102  0.00  0.00     0.205 C 
HETATM    6  C   UNK N   1     205.070 207.905 220.216  0.00  0.00     0.298 C 
ENDROOT
BRANCH   6   7
HETATM    7  O   UNK N   1     204.970 208.502 218.976  0.00  0.00    -0.311 OA
BRANCH   7   8
HETATM    8  C   UNK N   1     205.287 209.805 218.720  0.00  0.00     0.157 A 
HETATM    9  C   UNK N   1     204.305 210.632 218.151  0.00  0.00     0.124 A 
HETATM   10  O   UNK N   1     204.579 211.900 217.857  0.00  0.00    -0.306 OA
HETATM   11  C   UNK N   1     205.779 212.439 218.042  0.00  0.00     0.096 A 
HETATM   12  C   UNK N   1     206.826 211.688 218.626  0.00  0.00     0.084 A 
HETATM   13  C   UNK N   1     206.010 213.752 217.618  0.00  0.00     0.075 A 
HETATM   14  C   UNK N   1     206.563 210.350 218.985  0.00  0.00     0.223 A 
HETATM   15  C   UNK N   1     208.096 212.291 218.808  0.00  0.00     0.085 A 
HETATM   16  O   UNK N   1     207.430 209.668 219.499  0.00  0.00    -0.284 OA
HETATM   17  C   UNK N   1     208.306 213.608 218.373  0.00  0.00     0.074 A 
HETATM   18  C   UNK N   1     207.271 214.333 217.771  0.00  0.00     0.071 A 
BRANCH   9  19
HETATM   19  C   UNK N   1     202.992 210.082 217.753  0.00  0.00     0.004 A 
HETATM   20  C   UNK N   1     201.813 210.683 218.225  0.00  0.00     0.053 A 
HETATM   21  C   UNK N   1     200.559 210.152 217.906  0.00  0.00     0.099 A 
HETATM   22  C   UNK N   1     200.480 209.013 217.064  0.00  0.00     0.098 A 
HETATM   23  C   UNK N   1     201.662 208.427 216.588  0.00  0.00     0.040 A 
HETATM   24  C   UNK N   1     202.910 208.943 216.947  0.00  0.00     0.017 A 
BRANCH  21  25
HETATM   25  O   UNK N   1     199.464 210.744 218.431  0.00  0.00    -0.358 OA
HETATM   26  H   UNK N   1     198.642 210.895 217.948  0.00  0.00     0.218 HD
ENDBRANCH  21  25
BRANCH  22  27
HETATM   27  O   UNK N   1     199.301 208.462 216.701  0.00  0.00    -0.358 OA
HETATM   28  H   UNK N   1     199.180 207.907 215.921  0.00  0.00     0.218 HD
ENDBRANCH  22  27
ENDBRANCH   9  19
BRANCH  15  29
HETATM   29  O   UNK N   1     209.111 211.608 219.379  0.00  0.00    -0.360 OA
HETATM   30  H   UNK N   1     209.508 210.830 218.960  0.00  0.00     0.217 HD
ENDBRANCH  15  29
BRANCH  18  31
HETATM   31  O   UNK N   1     207.480 215.589 217.328  0.00  0.00    -0.361 OA
HETATM   32  H   UNK N   1     208.373 215.951 217.230  0.00  0.00     0.217 HD
ENDBRANCH  18  31
ENDBRANCH   7   8
ENDBRANCH   6   7
BRANCH   5  33
HETATM   33  O   UNK N   1     204.045 209.823 221.318  0.00  0.00    -0.388 OA
HETATM   34  H   UNK N   1     204.077 209.973 222.299  0.00  0.00     0.210 HD
ENDBRANCH   5  33
BRANCH   2  35
HETATM   35  C   UNK N   1     204.927 204.295 220.775  0.00  0.00     0.205 C 
BRANCH  35  36
HETATM   36  O   UNK N   1     203.689 204.053 220.135  0.00  0.00    -0.356 OA
BRANCH  36  37
HETATM   37  C   UNK N   1     203.529 204.884 218.999  0.00  0.00     0.291 C 
HETATM   38  O   UNK N   1     202.445 205.800 219.146  0.00  0.00    -0.351 OA
HETATM   39  C   UNK N   1     201.195 205.138 219.314  0.00  0.00     0.152 C 
HETATM   40  C   UNK N   1     200.845 204.288 218.068  0.00  0.00     0.178 C 
HETATM   41  C   UNK N   1     200.123 206.203 219.559  0.00  0.00     0.042 C 
HETATM   42  C   UNK N   1     201.978 203.275 217.833  0.00  0.00     0.183 C 
HETATM   43  C   UNK N   1     203.333 204.007 217.739  0.00  0.00     0.204 C 
BRANCH  40  44
HETATM   44  O   UNK N   1     199.638 203.594 218.264  0.00  0.00    -0.390 OA
HETATM   45  H   UNK N   1     199.041 204.185 218.796  0.00  0.00     0.210 HD
ENDBRANCH  40  44
BRANCH  42  46
HETATM   46  O   UNK N   1     201.743 202.477 216.698  0.00  0.00    -0.390 OA
HETATM   47  H   UNK N   1     200.773 202.265 216.670  0.00  0.00     0.210 HD
ENDBRANCH  42  46
BRANCH  43  48
HETATM   48  O   UNK N   1     203.421 204.773 216.559  0.00  0.00    -0.388 OA
HETATM   49  H   UNK N   1     203.809 205.660 216.773  0.00  0.00     0.210 HD
ENDBRANCH  43  48
ENDBRANCH  36  37
ENDBRANCH  35  36
ENDBRANCH   2  35
BRANCH   4  50
HETATM   50  O   UNK N   1     202.769 208.078 223.180  0.00  0.00    -0.390 OA
HETATM   51  H   UNK N   1     202.211 208.640 222.581  0.00  0.00     0.210 HD
ENDBRANCH   4  50
BRANCH   3  52
HETATM   52  O   UNK N   1     203.798 205.398 223.302  0.00  0.00    -0.390 OA
HETATM   53  H   UNK N   1     202.873 205.066 223.445  0.00  0.00     0.210 HD
ENDBRANCH   3  52
TORSDOF 16
ENDMDL
