MODEL 1
REMARK VINA RESULT:      -5.1      0.000      0.000
REMARK  4 active torsions:
REMARK  status: ('A' for Active; 'I' for Inactive)
REMARK    1  A    between atoms: O_1  and  C_9 
REMARK    2  A    between atoms: O_2  and  C_12 
REMARK    3  A    between atoms: C_4  and  C_10 
REMARK    4  A    between atoms: C_11  and  C_12 
ROOT
HETATM    1  C   UNK N   1     206.587 206.144 220.647  0.00  0.00    -0.036 A 
HETATM    2  C   UNK N   1     206.074 204.892 221.049  0.00  0.00     0.014 A 
HETATM    3  C   UNK N   1     207.967 206.383 220.776  0.00  0.00     0.014 A 
HETATM    4  C   UNK N   1     206.921 203.915 221.574  0.00  0.00     0.037 A 
HETATM    5  C   UNK N   1     208.810 205.404 221.313  0.00  0.00     0.037 A 
HETATM    6  C   UNK N   1     208.291 204.169 221.713  0.00  0.00     0.065 A 
ENDROOT
BRANCH   1   7
HETATM    7  C   UNK N   1     205.722 207.223 220.089  0.00  0.00     0.018 C 
HETATM    8  C   UNK N   1     205.992 208.537 220.231  0.00  0.00     0.082 C 
BRANCH   8   9
HETATM    9  C   UNK N   1     205.125 209.586 219.657  0.00  0.00     0.165 C 
HETATM   10  O   UNK N   1     205.572 210.418 218.883  0.00  0.00    -0.647 OA
BRANCH   9  11
HETATM   11  O   UNK N   1     203.819 209.615 220.001  0.00  0.00    -0.773 OA
HETATM   12  H   UNK N   1     203.139 209.243 219.422  0.00  0.00     0.167 HD
ENDBRANCH   9  11
ENDBRANCH   8   9
ENDBRANCH   1   7
BRANCH   6  13
HETATM   13  O   UNK N   1     209.113 203.232 222.228  0.00  0.00    -0.361 OA
HETATM   14  H   UNK N   1     208.879 202.737 223.026  0.00  0.00     0.217 HD
ENDBRANCH   6  13
TORSDOF 4
ENDMDL
MODEL 2
REMARK VINA RESULT:      -4.8      1.710      2.219
REMARK  4 active torsions:
REMARK  status: ('A' for Active; 'I' for Inactive)
REMARK    1  A    between atoms: O_1  and  C_9 
REMARK    2  A    between atoms: O_2  and  C_12 
REMARK    3  A    between atoms: C_4  and  C_10 
REMARK    4  A    between atoms: C_11  and  C_12 
ROOT
HETATM    1  C   UNK N   1     205.924 207.137 220.919  0.00  0.00    -0.036 A 
HETATM    2  C   UNK N   1     204.694 206.596 221.352  0.00  0.00     0.014 A 
HETATM    3  C   UNK N   1     207.006 206.267 220.702  0.00  0.00     0.014 A 
HETATM    4  C   UNK N   1     204.561 205.224 221.568  0.00  0.00     0.037 A 
HETATM    5  C   UNK N   1     206.872 204.894 220.930  0.00  0.00     0.037 A 
HETATM    6  C   UNK N   1     205.650 204.368 221.364  0.00  0.00     0.065 A 
ENDROOT
BRANCH   1   7
HETATM    7  C   UNK N   1     206.117 208.596 220.682  0.00  0.00     0.018 C 
HETATM    8  C   UNK N   1     206.031 209.167 219.463  0.00  0.00     0.082 C 
BRANCH   8   9
HETATM    9  C   UNK N   1     206.214 210.619 219.257  0.00  0.00     0.165 C 
HETATM   10  O   UNK N   1     205.638 211.204 218.353  0.00  0.00    -0.647 OA
BRANCH   9  11
HETATM   11  O   UNK N   1     207.033 211.299 220.089  0.00  0.00    -0.773 OA
HETATM   12  H   UNK N   1     207.769 211.826 219.749  0.00  0.00     0.167 HD
ENDBRANCH   9  11
ENDBRANCH   8   9
ENDBRANCH   1   7
BRANCH   6  13
HETATM   13  O   UNK N   1     205.532 203.042 221.580  0.00  0.00    -0.361 OA
HETATM   14  H   UNK N   1     204.823 202.681 222.133  0.00  0.00     0.217 HD
ENDBRANCH   6  13
TORSDOF 4
ENDMDL
MODEL 3
REMARK VINA RESULT:      -4.7     16.896     18.382
REMARK  4 active torsions:
REMARK  status: ('A' for Active; 'I' for Inactive)
REMARK    1  A    between atoms: O_1  and  C_9 
REMARK    2  A    between atoms: O_2  and  C_12 
REMARK    3  A    between atoms: C_4  and  C_10 
REMARK    4  A    between atoms: C_11  and  C_12 
ROOT
HETATM    1  C   UNK N   1     222.390 215.036 218.852  0.00  0.00    -0.036 A 
HETATM    2  C   UNK N   1     223.549 215.589 219.440  0.00  0.00     0.014 A 
HETATM    3  C   UNK N   1     221.910 215.591 217.653  0.00  0.00     0.014 A 
HETATM    4  C   UNK N   1     224.197 216.672 218.843  0.00  0.00     0.037 A 
HETATM    5  C   UNK N   1     222.557 216.682 217.065  0.00  0.00     0.037 A 
HETATM    6  C   UNK N   1     223.701 217.226 217.657  0.00  0.00     0.065 A 
ENDROOT
BRANCH   1   7
HETATM    7  C   UNK N   1     221.658 213.886 219.455  0.00  0.00     0.018 C 
HETATM    8  C   UNK N   1     221.374 212.753 218.781  0.00  0.00     0.082 C 
BRANCH   8   9
HETATM    9  C   UNK N   1     220.658 211.622 219.406  0.00  0.00     0.165 C 
HETATM   10  O   UNK N   1     219.897 210.922 218.755  0.00  0.00    -0.647 OA
BRANCH   9  11
HETATM   11  O   UNK N   1     220.858 211.366 220.717  0.00  0.00    -0.773 OA
HETATM   12  H   UNK N   1     220.570 211.988 221.399  0.00  0.00     0.167 HD
ENDBRANCH   9  11
ENDBRANCH   8   9
ENDBRANCH   1   7
BRANCH   6  13
HETATM   13  O   UNK N   1     224.318 218.278 217.081  0.00  0.00    -0.361 OA
HETATM   14  H   UNK N   1     223.855 218.857 216.459  0.00  0.00     0.217 HD
ENDBRANCH   6  13
TORSDOF 4
ENDMDL
MODEL 4
REMARK VINA RESULT:      -4.6      1.416      5.752
REMARK  4 active torsions:
REMARK  status: ('A' for Active; 'I' for Inactive)
REMARK    1  A    between atoms: O_1  and  C_9 
REMARK    2  A    between atoms: O_2  and  C_12 
REMARK    3  A    between atoms: C_4  and  C_10 
REMARK    4  A    between atoms: C_11  and  C_12 
ROOT
HETATM    1  C   UNK N   1     205.947 207.638 220.761  0.00  0.00    -0.036 A 
HETATM    2  C   UNK N   1     204.801 207.540 221.580  0.00  0.00     0.014 A 
HETATM    3  C   UNK N   1     205.943 208.557 219.697  0.00  0.00     0.014 A 
HETATM    4  C   UNK N   1     203.683 208.335 221.328  0.00  0.00     0.037 A 
HETATM    5  C   UNK N   1     204.815 209.344 219.444  0.00  0.00     0.037 A 
HETATM    6  C   UNK N   1     203.683 209.236 220.257  0.00  0.00     0.065 A 
ENDROOT
BRANCH   1   7
HETATM    7  C   UNK N   1     207.163 206.803 220.984  0.00  0.00     0.018 C 
HETATM    8  C   UNK N   1     207.141 205.455 221.014  0.00  0.00     0.082 C 
BRANCH   8   9
HETATM    9  C   UNK N   1     208.362 204.651 221.223  0.00  0.00     0.165 C 
HETATM   10  O   UNK N   1     208.382 203.735 222.031  0.00  0.00    -0.647 OA
BRANCH   9  11
HETATM   11  O   UNK N   1     209.467 204.940 220.501  0.00  0.00    -0.773 OA
HETATM   12  H   UNK N   1     209.612 205.825 220.138  0.00  0.00     0.167 HD
ENDBRANCH   9  11
ENDBRANCH   8   9
ENDBRANCH   1   7
BRANCH   6  13
HETATM   13  O   UNK N   1     202.601 210.001 220.003  0.00  0.00    -0.361 OA
HETATM   14  H   UNK N   1     202.251 210.617 220.663  0.00  0.00     0.217 HD
ENDBRANCH   6  13
TORSDOF 4
ENDMDL
MODEL 5
REMARK VINA RESULT:      -4.6      3.072      5.651
REMARK  4 active torsions:
REMARK  status: ('A' for Active; 'I' for Inactive)
REMARK    1  A    between atoms: O_1  and  C_9 
REMARK    2  A    between atoms: O_2  and  C_12 
REMARK    3  A    between atoms: C_4  and  C_10 
REMARK    4  A    between atoms: C_11  and  C_12 
ROOT
HETATM    1  C   UNK N   1     204.725 207.902 221.684  0.00  0.00    -0.036 A 
HETATM    2  C   UNK N   1     203.491 207.254 221.907  0.00  0.00     0.014 A 
HETATM    3  C   UNK N   1     204.922 209.186 222.221  0.00  0.00     0.014 A 
HETATM    4  C   UNK N   1     202.483 207.884 222.639  0.00  0.00     0.037 A 
HETATM    5  C   UNK N   1     203.905 209.817 222.945  0.00  0.00     0.037 A 
HETATM    6  C   UNK N   1     202.684 209.169 223.157  0.00  0.00     0.065 A 
ENDROOT
BRANCH   1   7
HETATM    7  C   UNK N   1     205.828 207.274 220.901  0.00  0.00     0.018 C 
HETATM    8  C   UNK N   1     206.141 205.965 220.981  0.00  0.00     0.082 C 
BRANCH   8   9
HETATM    9  C   UNK N   1     207.231 205.365 220.184  0.00  0.00     0.165 C 
HETATM   10  O   UNK N   1     208.238 204.930 220.721  0.00  0.00    -0.647 OA
BRANCH   9  11
HETATM   11  O   UNK N   1     207.100 205.300 218.841  0.00  0.00    -0.773 OA
HETATM   12  H   UNK N   1     207.589 205.897 218.259  0.00  0.00     0.167 HD
ENDBRANCH   9  11
ENDBRANCH   8   9
ENDBRANCH   1   7
BRANCH   6  13
HETATM   13  O   UNK N   1     201.711 209.787 223.857  0.00  0.00    -0.361 OA
HETATM   14  H   UNK N   1     201.134 210.447 223.447  0.00  0.00     0.217 HD
ENDBRANCH   6  13
TORSDOF 4
ENDMDL
MODEL 6
REMARK VINA RESULT:      -4.4     15.663     17.218
REMARK  4 active torsions:
REMARK  status: ('A' for Active; 'I' for Inactive)
REMARK    1  A    between atoms: O_1  and  C_9 
REMARK    2  A    between atoms: O_2  and  C_12 
REMARK    3  A    between atoms: C_4  and  C_10 
REMARK    4  A    between atoms: C_11  and  C_12 
ROOT
HETATM    1  C   UNK N   1     222.392 212.910 219.359  0.00  0.00    -0.036 A 
HETATM    2  C   UNK N   1     221.669 214.110 219.186  0.00  0.00     0.014 A 
HETATM    3  C   UNK N   1     223.764 212.983 219.656  0.00  0.00     0.014 A 
HETATM    4  C   UNK N   1     222.310 215.345 219.299  0.00  0.00     0.037 A 
HETATM    5  C   UNK N   1     224.404 214.222 219.758  0.00  0.00     0.037 A 
HETATM    6  C   UNK N   1     223.680 215.406 219.579  0.00  0.00     0.065 A 
ENDROOT
BRANCH   1   7
HETATM    7  C   UNK N   1     221.754 211.567 219.240  0.00  0.00     0.018 C 
HETATM    8  C   UNK N   1     220.421 211.371 219.315  0.00  0.00     0.082 C 
BRANCH   8   9
HETATM    9  C   UNK N   1     219.813 210.032 219.180  0.00  0.00     0.165 C 
HETATM   10  O   UNK N   1     219.507 209.586 218.085  0.00  0.00    -0.647 OA
BRANCH   9  11
HETATM   11  O   UNK N   1     219.597 209.297 220.293  0.00  0.00    -0.773 OA
HETATM   12  H   UNK N   1     219.136 208.448 220.252  0.00  0.00     0.167 HD
ENDBRANCH   9  11
ENDBRANCH   8   9
ENDBRANCH   1   7
BRANCH   6  13
HETATM   13  O   UNK N   1     224.308 216.595 219.681  0.00  0.00    -0.361 OA
HETATM   14  H   UNK N   1     223.825 217.431 219.600  0.00  0.00     0.217 HD
ENDBRANCH   6  13
TORSDOF 4
ENDMDL
MODEL 7
REMARK VINA RESULT:      -4.3     20.489     22.255
REMARK  4 active torsions:
REMARK  status: ('A' for Active; 'I' for Inactive)
REMARK    1  A    between atoms: O_1  and  C_9 
REMARK    2  A    between atoms: O_2  and  C_12 
REMARK    3  A    between atoms: C_4  and  C_10 
REMARK    4  A    between atoms: C_11  and  C_12 
ROOT
HETATM    1  C   UNK N   1     221.591 212.141 235.643  0.00  0.00    -0.036 A 
HETATM    2  C   UNK N   1     221.483 213.373 236.324  0.00  0.00     0.014 A 
HETATM    3  C   UNK N   1     222.610 211.984 234.687  0.00  0.00     0.014 A 
HETATM    4  C   UNK N   1     222.368 214.415 236.045  0.00  0.00     0.037 A 
HETATM    5  C   UNK N   1     223.487 213.036 234.403  0.00  0.00     0.037 A 
HETATM    6  C   UNK N   1     223.369 214.253 235.081  0.00  0.00     0.065 A 
ENDROOT
BRANCH   1   7
HETATM    7  C   UNK N   1     220.665 211.001 235.899  0.00  0.00     0.018 C 
HETATM    8  C   UNK N   1     219.633 211.065 236.765  0.00  0.00     0.082 C 
BRANCH   8   9
HETATM    9  C   UNK N   1     218.721 209.925 236.992  0.00  0.00     0.165 C 
HETATM   10  O   UNK N   1     218.835 209.214 237.978  0.00  0.00    -0.647 OA
BRANCH   9  11
HETATM   11  O   UNK N   1     217.749 209.676 236.087  0.00  0.00    -0.773 OA
HETATM   12  H   UNK N   1     217.718 210.144 235.242  0.00  0.00     0.167 HD
ENDBRANCH   9  11
ENDBRANCH   8   9
ENDBRANCH   1   7
BRANCH   6  13
HETATM   13  O   UNK N   1     224.221 215.260 234.800  0.00  0.00    -0.361 OA
HETATM   14  H   UNK N   1     225.173 215.176 234.955  0.00  0.00     0.217 HD
ENDBRANCH   6  13
TORSDOF 4
ENDMDL
MODEL 8
REMARK VINA RESULT:      -4.2     21.576     22.057
REMARK  4 active torsions:
REMARK  status: ('A' for Active; 'I' for Inactive)
REMARK    1  A    between atoms: O_1  and  C_9 
REMARK    2  A    between atoms: O_2  and  C_12 
REMARK    3  A    between atoms: C_4  and  C_10 
REMARK    4  A    between atoms: C_11  and  C_12 
ROOT
HETATM    1  C   UNK N   1     219.682 210.764 237.215  0.00  0.00    -0.036 A 
HETATM    2  C   UNK N   1     220.478 211.805 236.691  0.00  0.00     0.014 A 
HETATM    3  C   UNK N   1     220.036 209.433 236.931  0.00  0.00     0.014 A 
HETATM    4  C   UNK N   1     221.589 211.516 235.898  0.00  0.00     0.037 A 
HETATM    5  C   UNK N   1     221.145 209.149 236.127  0.00  0.00     0.037 A 
HETATM    6  C   UNK N   1     221.924 210.188 235.609  0.00  0.00     0.065 A 
ENDROOT
BRANCH   1   7
HETATM    7  C   UNK N   1     218.480 211.022 238.059  0.00  0.00     0.018 C 
HETATM    8  C   UNK N   1     218.520 211.725 239.209  0.00  0.00     0.082 C 
BRANCH   8   9
HETATM    9  C   UNK N   1     217.312 211.979 240.021  0.00  0.00     0.165 C 
HETATM   10  O   UNK N   1     216.812 211.094 240.698  0.00  0.00    -0.647 OA
BRANCH   9  11
HETATM   11  O   UNK N   1     216.763 213.213 240.008  0.00  0.00    -0.773 OA
HETATM   12  H   UNK N   1     215.962 213.411 240.512  0.00  0.00     0.167 HD
ENDBRANCH   9  11
ENDBRANCH   8   9
ENDBRANCH   1   7
BRANCH   6  13
HETATM   13  O   UNK N   1     222.991 209.902 234.836  0.00  0.00    -0.361 OA
HETATM   14  H   UNK N   1     223.842 209.646 235.221  0.00  0.00     0.217 HD
ENDBRANCH   6  13
TORSDOF 4
ENDMDL
MODEL 9
REMARK VINA RESULT:      -4.2      3.439      4.557
REMARK  4 active torsions:
REMARK  status: ('A' for Active; 'I' for Inactive)
REMARK    1  A    between atoms: O_1  and  C_9 
REMARK    2  A    between atoms: O_2  and  C_12 
REMARK    3  A    between atoms: C_4  and  C_10 
REMARK    4  A    between atoms: C_11  and  C_12 
ROOT
HETATM    1  C   UNK N   1     205.817 204.809 221.471  0.00  0.00    -0.036 A 
HETATM    2  C   UNK N   1     206.912 203.960 221.744  0.00  0.00     0.014 A 
HETATM    3  C   UNK N   1     206.066 206.076 220.913  0.00  0.00     0.014 A 
HETATM    4  C   UNK N   1     208.216 204.377 221.472  0.00  0.00     0.037 A 
HETATM    5  C   UNK N   1     207.376 206.492 220.652  0.00  0.00     0.037 A 
HETATM    6  C   UNK N   1     208.453 205.646 220.930  0.00  0.00     0.065 A 
ENDROOT
BRANCH   1   7
HETATM    7  C   UNK N   1     204.408 204.414 221.752  0.00  0.00     0.018 C 
HETATM    8  C   UNK N   1     203.876 204.399 222.992  0.00  0.00     0.082 C 
BRANCH   8   9
HETATM    9  C   UNK N   1     202.471 204.015 223.243  0.00  0.00     0.165 C 
HETATM   10  O   UNK N   1     201.957 204.190 224.336  0.00  0.00    -0.647 OA
BRANCH   9  11
HETATM   11  O   UNK N   1     201.755 203.464 222.239  0.00  0.00    -0.773 OA
HETATM   12  H   UNK N   1     202.133 202.781 221.668  0.00  0.00     0.167 HD
ENDBRANCH   9  11
ENDBRANCH   8   9
ENDBRANCH   1   7
BRANCH   6  13
HETATM   13  O   UNK N   1     209.711 206.058 220.674  0.00  0.00    -0.361 OA
HETATM   14  H   UNK N   1     210.445 205.430 220.604  0.00  0.00     0.217 HD
ENDBRANCH   6  13
TORSDOF 4
ENDMDL
