MODEL 1
REMARK VINA RESULT:      -7.4      0.000      0.000
REMARK  12 active torsions:
REMARK  status: ('A' for Active; 'I' for Inactive)
REMARK    1  A    between atoms: O_2  and  C_12 
REMARK    2  A    between atoms: O_2  and  C_24 
REMARK    3  A    between atoms: O_3  and  C_18 
REMARK    4  A    between atoms: O_4  and  C_23 
REMARK    5  A    between atoms: O_5  and  C_25 
REMARK    6  A    between atoms: O_6  and  C_26 
REMARK    7  A    between atoms: O_8  and  C_27 
REMARK    8  A    between atoms: O_9  and  C_31 
REMARK    9  A    between atoms: O_10  and  C_32 
REMARK   10  A    between atoms: O_11  and  C_33 
REMARK   11  A    between atoms: C_13  and  C_16 
REMARK   12  A    between atoms: C_24  and  C_28 
ROOT
HETATM    1  O   UNK N   1     206.621 206.587 220.204  0.00  0.00    -0.338 OA
HETATM    2  C   UNK N   1     204.236 206.509 220.333  0.00  0.00     0.170 C 
HETATM    3  C   UNK N   1     205.467 206.909 219.506  0.00  0.00     0.192 C 
HETATM    4  C   UNK N   1     204.290 204.982 220.572  0.00  0.00     0.080 C 
HETATM    5  C   UNK N   1     205.664 204.547 221.049  0.00  0.00     0.011 A 
HETATM    6  C   UNK N   1     206.774 205.399 220.843  0.00  0.00     0.081 A 
HETATM    7  C   UNK N   1     205.852 203.303 221.676  0.00  0.00     0.077 A 
HETATM    8  C   UNK N   1     208.043 205.019 221.289  0.00  0.00     0.074 A 
HETATM    9  C   UNK N   1     207.135 202.927 222.110  0.00  0.00     0.073 A 
HETATM   10  C   UNK N   1     208.226 203.782 221.920  0.00  0.00     0.071 A 
ENDROOT
BRANCH   2  11
HETATM   11  O   UNK N   1     204.301 207.150 221.554  0.00  0.00    -0.309 OA
BRANCH  11  12
HETATM   12  C   UNK N   1     203.255 207.304 222.405  0.00  0.00     0.294 C 
HETATM   13  O   UNK N   1     203.049 206.490 223.293  0.00  0.00    -0.259 OA
BRANCH  12  14
HETATM   14  C   UNK N   1     202.368 208.474 222.235  0.00  0.00     0.045 A 
HETATM   15  C   UNK N   1     201.617 208.982 223.307  0.00  0.00     0.057 A 
HETATM   16  C   UNK N   1     200.776 210.091 223.115  0.00  0.00     0.102 A 
HETATM   17  C   UNK N   1     200.705 210.709 221.851  0.00  0.00     0.132 A 
HETATM   18  C   UNK N   1     201.471 210.213 220.788  0.00  0.00     0.102 A 
HETATM   19  C   UNK N   1     202.289 209.095 220.980  0.00  0.00     0.057 A 
BRANCH  16  20
HETATM   20  O   UNK N   1     200.036 210.565 224.140  0.00  0.00    -0.358 OA
HETATM   21  H   UNK N   1     199.084 210.718 224.054  0.00  0.00     0.218 HD
ENDBRANCH  16  20
BRANCH  17  22
HETATM   22  O   UNK N   1     199.906 211.778 221.644  0.00  0.00    -0.356 OA
HETATM   23  H   UNK N   1     199.114 211.942 222.174  0.00  0.00     0.218 HD
ENDBRANCH  17  22
BRANCH  18  24
HETATM   24  O   UNK N   1     201.420 210.816 219.583  0.00  0.00    -0.358 OA
HETATM   25  H   UNK N   1     202.132 211.395 219.273  0.00  0.00     0.218 HD
ENDBRANCH  18  24
ENDBRANCH  12  14
ENDBRANCH  11  12
ENDBRANCH   2  11
BRANCH   3  26
HETATM   26  C   UNK N   1     205.458 208.380 219.144  0.00  0.00    -0.021 A 
HETATM   27  C   UNK N   1     204.473 208.869 218.274  0.00  0.00     0.049 A 
HETATM   28  C   UNK N   1     204.446 210.224 217.917  0.00  0.00     0.102 A 
HETATM   29  C   UNK N   1     205.412 211.104 218.426  0.00  0.00     0.132 A 
HETATM   30  C   UNK N   1     206.404 210.624 219.301  0.00  0.00     0.102 A 
HETATM   31  C   UNK N   1     206.422 209.266 219.661  0.00  0.00     0.049 A 
BRANCH  28  32
HETATM   32  O   UNK N   1     203.493 210.690 217.083  0.00  0.00    -0.358 OA
HETATM   33  H   UNK N   1     203.251 211.627 217.059  0.00  0.00     0.218 HD
ENDBRANCH  28  32
BRANCH  29  34
HETATM   34  O   UNK N   1     205.376 212.405 218.064  0.00  0.00    -0.356 OA
HETATM   35  H   UNK N   1     205.860 213.091 218.544  0.00  0.00     0.218 HD
ENDBRANCH  29  34
BRANCH  30  36
HETATM   36  O   UNK N   1     207.338 211.468 219.789  0.00  0.00    -0.358 OA
HETATM   37  H   UNK N   1     207.246 211.890 220.655  0.00  0.00     0.218 HD
ENDBRANCH  30  36
ENDBRANCH   3  26
BRANCH   7  38
HETATM   38  O   UNK N   1     204.802 202.477 221.868  0.00  0.00    -0.360 OA
HETATM   39  H   UNK N   1     204.443 201.934 221.152  0.00  0.00     0.217 HD
ENDBRANCH   7  38
BRANCH  10  40
HETATM   40  O   UNK N   1     209.450 203.400 222.339  0.00  0.00    -0.361 OA
HETATM   41  H   UNK N   1     209.637 203.224 223.273  0.00  0.00     0.217 HD
ENDBRANCH  10  40
TORSDOF 12
ENDMDL
MODEL 2
REMARK VINA RESULT:      -7.3      0.055      2.046
REMARK  12 active torsions:
REMARK  status: ('A' for Active; 'I' for Inactive)
REMARK    1  A    between atoms: O_2  and  C_12 
REMARK    2  A    between atoms: O_2  and  C_24 
REMARK    3  A    between atoms: O_3  and  C_18 
REMARK    4  A    between atoms: O_4  and  C_23 
REMARK    5  A    between atoms: O_5  and  C_25 
REMARK    6  A    between atoms: O_6  and  C_26 
REMARK    7  A    between atoms: O_8  and  C_27 
REMARK    8  A    between atoms: O_9  and  C_31 
REMARK    9  A    between atoms: O_10  and  C_32 
REMARK   10  A    between atoms: O_11  and  C_33 
REMARK   11  A    between atoms: C_13  and  C_16 
REMARK   12  A    between atoms: C_24  and  C_28 
ROOT
HETATM    1  O   UNK N   1     206.600 206.566 220.174  0.00  0.00    -0.338 OA
HETATM    2  C   UNK N   1     204.216 206.492 220.327  0.00  0.00     0.170 C 
HETATM    3  C   UNK N   1     205.439 206.882 219.483  0.00  0.00     0.192 C 
HETATM    4  C   UNK N   1     204.270 204.968 220.584  0.00  0.00     0.080 C 
HETATM    5  C   UNK N   1     205.649 204.538 221.052  0.00  0.00     0.011 A 
HETATM    6  C   UNK N   1     206.758 205.386 220.825  0.00  0.00     0.081 A 
HETATM    7  C   UNK N   1     205.842 203.300 221.692  0.00  0.00     0.077 A 
HETATM    8  C   UNK N   1     208.030 205.009 221.262  0.00  0.00     0.074 A 
HETATM    9  C   UNK N   1     207.129 202.929 222.117  0.00  0.00     0.073 A 
HETATM   10  C   UNK N   1     208.219 203.779 221.906  0.00  0.00     0.071 A 
ENDROOT
BRANCH   2  11
HETATM   11  O   UNK N   1     204.293 207.148 221.539  0.00  0.00    -0.309 OA
BRANCH  11  12
HETATM   12  C   UNK N   1     203.248 207.343 222.383  0.00  0.00     0.294 C 
HETATM   13  O   UNK N   1     203.034 206.562 223.300  0.00  0.00    -0.259 OA
BRANCH  12  14
HETATM   14  C   UNK N   1     202.374 208.515 222.171  0.00  0.00     0.045 A 
HETATM   15  C   UNK N   1     202.296 209.151 220.922  0.00  0.00     0.057 A 
HETATM   16  C   UNK N   1     201.462 210.268 220.749  0.00  0.00     0.102 A 
HETATM   17  C   UNK N   1     200.683 210.736 221.827  0.00  0.00     0.132 A 
HETATM   18  C   UNK N   1     200.746 210.086 223.067  0.00  0.00     0.102 A 
HETATM   19  C   UNK N   1     201.595 208.989 223.237  0.00  0.00     0.057 A 
BRANCH  16  20
HETATM   20  O   UNK N   1     201.406 210.894 219.555  0.00  0.00    -0.358 OA
HETATM   21  H   UNK N   1     200.938 210.511 218.800  0.00  0.00     0.218 HD
ENDBRANCH  16  20
BRANCH  17  22
HETATM   22  O   UNK N   1     199.872 211.806 221.684  0.00  0.00    -0.356 OA
HETATM   23  H   UNK N   1     199.046 211.766 221.182  0.00  0.00     0.218 HD
ENDBRANCH  17  22
BRANCH  18  24
HETATM   24  O   UNK N   1     199.985 210.520 224.092  0.00  0.00    -0.358 OA
HETATM   25  H   UNK N   1     199.035 210.674 223.991  0.00  0.00     0.218 HD
ENDBRANCH  18  24
ENDBRANCH  12  14
ENDBRANCH  11  12
ENDBRANCH   2  11
BRANCH   3  26
HETATM   26  C   UNK N   1     205.428 208.348 219.104  0.00  0.00    -0.021 A 
HETATM   27  C   UNK N   1     206.405 209.204 219.634  0.00  0.00     0.049 A 
HETATM   28  C   UNK N   1     206.414 210.566 219.304  0.00  0.00     0.102 A 
HETATM   29  C   UNK N   1     205.438 211.086 218.442  0.00  0.00     0.132 A 
HETATM   30  C   UNK N   1     204.455 210.236 217.904  0.00  0.00     0.102 A 
HETATM   31  C   UNK N   1     204.455 208.870 218.231  0.00  0.00     0.049 A 
BRANCH  28  32
HETATM   32  O   UNK N   1     207.359 211.384 219.814  0.00  0.00    -0.358 OA
HETATM   33  H   UNK N   1     207.240 212.345 219.839  0.00  0.00     0.218 HD
ENDBRANCH  28  32
BRANCH  29  34
HETATM   34  O   UNK N   1     205.457 212.404 218.143  0.00  0.00    -0.356 OA
HETATM   35  H   UNK N   1     204.772 213.015 218.447  0.00  0.00     0.218 HD
ENDBRANCH  29  34
BRANCH  30  36
HETATM   36  O   UNK N   1     203.511 210.736 217.077  0.00  0.00    -0.358 OA
HETATM   37  H   UNK N   1     202.917 210.163 216.572  0.00  0.00     0.218 HD
ENDBRANCH  30  36
ENDBRANCH   3  26
BRANCH   7  38
HETATM   38  O   UNK N   1     204.792 202.478 221.903  0.00  0.00    -0.360 OA
HETATM   39  H   UNK N   1     204.832 201.757 222.547  0.00  0.00     0.217 HD
ENDBRANCH   7  38
BRANCH  10  40
HETATM   40  O   UNK N   1     209.446 203.401 222.317  0.00  0.00    -0.361 OA
HETATM   41  H   UNK N   1     210.251 203.775 221.929  0.00  0.00     0.217 HD
ENDBRANCH  10  40
TORSDOF 12
ENDMDL
MODEL 3
REMARK VINA RESULT:      -6.7     22.402     24.415
REMARK  12 active torsions:
REMARK  status: ('A' for Active; 'I' for Inactive)
REMARK    1  A    between atoms: O_2  and  C_12 
REMARK    2  A    between atoms: O_2  and  C_24 
REMARK    3  A    between atoms: O_3  and  C_18 
REMARK    4  A    between atoms: O_4  and  C_23 
REMARK    5  A    between atoms: O_5  and  C_25 
REMARK    6  A    between atoms: O_6  and  C_26 
REMARK    7  A    between atoms: O_8  and  C_27 
REMARK    8  A    between atoms: O_9  and  C_31 
REMARK    9  A    between atoms: O_10  and  C_32 
REMARK   10  A    between atoms: O_11  and  C_33 
REMARK   11  A    between atoms: C_13  and  C_16 
REMARK   12  A    between atoms: C_24  and  C_28 
ROOT
HETATM    1  O   UNK N   1     224.100 212.388 236.263  0.00  0.00    -0.338 OA
HETATM    2  C   UNK N   1     223.349 210.197 235.676  0.00  0.00     0.170 C 
HETATM    3  C   UNK N   1     224.373 211.315 235.428  0.00  0.00     0.192 C 
HETATM    4  C   UNK N   1     223.465 209.751 237.152  0.00  0.00     0.080 C 
HETATM    5  C   UNK N   1     223.484 210.946 238.088  0.00  0.00     0.011 A 
HETATM    6  C   UNK N   1     223.796 212.227 237.575  0.00  0.00     0.081 A 
HETATM    7  C   UNK N   1     223.213 210.796 239.459  0.00  0.00     0.077 A 
HETATM    8  C   UNK N   1     223.804 213.339 238.422  0.00  0.00     0.074 A 
HETATM    9  C   UNK N   1     223.235 211.920 240.302  0.00  0.00     0.073 A 
HETATM   10  C   UNK N   1     223.526 213.187 239.787  0.00  0.00     0.071 A 
ENDROOT
BRANCH   2  11
HETATM   11  O   UNK N   1     222.084 210.708 235.467  0.00  0.00    -0.309 OA
BRANCH  11  12
HETATM   12  C   UNK N   1     220.928 210.044 235.721  0.00  0.00     0.294 C 
HETATM   13  O   UNK N   1     220.490 209.228 234.924  0.00  0.00    -0.259 OA
BRANCH  12  14
HETATM   14  C   UNK N   1     220.208 210.330 236.980  0.00  0.00     0.045 A 
HETATM   15  C   UNK N   1     220.013 211.647 237.427  0.00  0.00     0.057 A 
HETATM   16  C   UNK N   1     219.331 211.889 238.631  0.00  0.00     0.102 A 
HETATM   17  C   UNK N   1     218.821 210.810 239.379  0.00  0.00     0.132 A 
HETATM   18  C   UNK N   1     218.998 209.497 238.920  0.00  0.00     0.102 A 
HETATM   19  C   UNK N   1     219.697 209.262 237.732  0.00  0.00     0.057 A 
BRANCH  16  20
HETATM   20  O   UNK N   1     219.165 213.154 239.072  0.00  0.00    -0.358 OA
HETATM   21  H   UNK N   1     218.476 213.732 238.716  0.00  0.00     0.218 HD
ENDBRANCH  16  20
BRANCH  17  22
HETATM   22  O   UNK N   1     218.160 211.019 240.538  0.00  0.00    -0.356 OA
HETATM   23  H   UNK N   1     217.217 211.234 240.565  0.00  0.00     0.218 HD
ENDBRANCH  17  22
BRANCH  18  24
HETATM   24  O   UNK N   1     218.492 208.465 239.625  0.00  0.00    -0.358 OA
HETATM   25  H   UNK N   1     218.724 207.547 239.421  0.00  0.00     0.218 HD
ENDBRANCH  18  24
ENDBRANCH  12  14
ENDBRANCH  11  12
ENDBRANCH   2  11
BRANCH   3  26
HETATM   26  C   UNK N   1     224.396 211.759 233.981  0.00  0.00    -0.021 A 
HETATM   27  C   UNK N   1     224.397 213.128 233.681  0.00  0.00     0.049 A 
HETATM   28  C   UNK N   1     224.412 213.566 232.349  0.00  0.00     0.102 A 
HETATM   29  C   UNK N   1     224.420 212.634 231.303  0.00  0.00     0.132 A 
HETATM   30  C   UNK N   1     224.421 211.257 231.593  0.00  0.00     0.102 A 
HETATM   31  C   UNK N   1     224.415 210.823 232.929  0.00  0.00     0.049 A 
BRANCH  28  32
HETATM   32  O   UNK N   1     224.417 214.886 232.067  0.00  0.00    -0.358 OA
HETATM   33  H   UNK N   1     224.168 215.549 232.728  0.00  0.00     0.218 HD
ENDBRANCH  28  32
BRANCH  29  34
HETATM   34  O   UNK N   1     224.425 213.074 230.025  0.00  0.00    -0.356 OA
HETATM   35  H   UNK N   1     224.838 212.576 229.306  0.00  0.00     0.218 HD
ENDBRANCH  29  34
BRANCH  30  36
HETATM   36  O   UNK N   1     224.425 210.355 230.587  0.00  0.00    -0.358 OA
HETATM   37  H   UNK N   1     224.537 209.408 230.748  0.00  0.00     0.218 HD
ENDBRANCH  30  36
ENDBRANCH   3  26
BRANCH   7  38
HETATM   38  O   UNK N   1     222.924 209.576 239.961  0.00  0.00    -0.360 OA
HETATM   39  H   UNK N   1     223.064 208.768 239.447  0.00  0.00     0.217 HD
ENDBRANCH   7  38
BRANCH  10  40
HETATM   40  O   UNK N   1     223.547 214.252 240.614  0.00  0.00    -0.361 OA
HETATM   41  H   UNK N   1     224.364 214.553 241.037  0.00  0.00     0.217 HD
ENDBRANCH  10  40
TORSDOF 12
ENDMDL
MODEL 4
REMARK VINA RESULT:      -6.2      1.948      3.379
REMARK  12 active torsions:
REMARK  status: ('A' for Active; 'I' for Inactive)
REMARK    1  A    between atoms: O_2  and  C_12 
REMARK    2  A    between atoms: O_2  and  C_24 
REMARK    3  A    between atoms: O_3  and  C_18 
REMARK    4  A    between atoms: O_4  and  C_23 
REMARK    5  A    between atoms: O_5  and  C_25 
REMARK    6  A    between atoms: O_6  and  C_26 
REMARK    7  A    between atoms: O_8  and  C_27 
REMARK    8  A    between atoms: O_9  and  C_31 
REMARK    9  A    between atoms: O_10  and  C_32 
REMARK   10  A    between atoms: O_11  and  C_33 
REMARK   11  A    between atoms: C_13  and  C_16 
REMARK   12  A    between atoms: C_24  and  C_28 
ROOT
HETATM    1  O   UNK N   1     206.022 208.420 219.171  0.00  0.00    -0.338 OA
HETATM    2  C   UNK N   1     203.872 209.059 218.345  0.00  0.00     0.170 C 
HETATM    3  C   UNK N   1     205.396 209.167 218.184  0.00  0.00     0.192 C 
HETATM    4  C   UNK N   1     203.475 207.571 218.203  0.00  0.00     0.080 C 
HETATM    5  C   UNK N   1     204.365 206.680 219.051  0.00  0.00     0.011 A 
HETATM    6  C   UNK N   1     205.611 207.171 219.506  0.00  0.00     0.081 A 
HETATM    7  C   UNK N   1     203.977 205.368 219.374  0.00  0.00     0.077 A 
HETATM    8  C   UNK N   1     206.435 206.367 220.298  0.00  0.00     0.074 A 
HETATM    9  C   UNK N   1     204.820 204.566 220.163  0.00  0.00     0.073 A 
HETATM   10  C   UNK N   1     206.042 205.063 220.625  0.00  0.00     0.071 A 
ENDROOT
BRANCH   2  11
HETATM   11  O   UNK N   1     203.535 209.487 219.613  0.00  0.00    -0.309 OA
BRANCH  11  12
HETATM   12  C   UNK N   1     202.333 210.015 219.958  0.00  0.00     0.294 C 
HETATM   13  O   UNK N   1     201.881 210.980 219.359  0.00  0.00    -0.259 OA
BRANCH  12  14
HETATM   14  C   UNK N   1     201.583 209.402 221.074  0.00  0.00     0.045 A 
HETATM   15  C   UNK N   1     201.502 210.025 222.330  0.00  0.00     0.057 A 
HETATM   16  C   UNK N   1     200.788 209.417 223.375  0.00  0.00     0.102 A 
HETATM   17  C   UNK N   1     200.132 208.189 223.156  0.00  0.00     0.132 A 
HETATM   18  C   UNK N   1     200.195 207.579 221.896  0.00  0.00     0.102 A 
HETATM   19  C   UNK N   1     200.926 208.180 220.867  0.00  0.00     0.057 A 
BRANCH  16  20
HETATM   20  O   UNK N   1     200.732 210.005 224.589  0.00  0.00    -0.358 OA
HETATM   21  H   UNK N   1     199.889 210.200 225.022  0.00  0.00     0.218 HD
ENDBRANCH  16  20
BRANCH  17  22
HETATM   22  O   UNK N   1     199.438 207.587 224.145  0.00  0.00    -0.356 OA
HETATM   23  H   UNK N   1     198.707 206.978 223.969  0.00  0.00     0.218 HD
ENDBRANCH  17  22
BRANCH  18  24
HETATM   24  O   UNK N   1     199.550 206.415 221.679  0.00  0.00    -0.358 OA
HETATM   25  H   UNK N   1     198.584 206.354 221.719  0.00  0.00     0.218 HD
ENDBRANCH  18  24
ENDBRANCH  12  14
ENDBRANCH  11  12
ENDBRANCH   2  11
BRANCH   3  26
HETATM   26  C   UNK N   1     205.874 210.603 218.220  0.00  0.00    -0.021 A 
HETATM   27  C   UNK N   1     207.222 210.874 218.498  0.00  0.00     0.049 A 
HETATM   28  C   UNK N   1     207.689 212.195 218.544  0.00  0.00     0.102 A 
HETATM   29  C   UNK N   1     206.807 213.260 218.316  0.00  0.00     0.132 A 
HETATM   30  C   UNK N   1     205.453 213.000 218.035  0.00  0.00     0.102 A 
HETATM   31  C   UNK N   1     204.992 211.674 217.982  0.00  0.00     0.049 A 
BRANCH  28  32
HETATM   32  O   UNK N   1     208.988 212.448 218.808  0.00  0.00    -0.358 OA
HETATM   33  H   UNK N   1     209.514 211.868 219.379  0.00  0.00     0.218 HD
ENDBRANCH  28  32
BRANCH  29  34
HETATM   34  O   UNK N   1     207.273 214.527 218.374  0.00  0.00    -0.356 OA
HETATM   35  H   UNK N   1     206.687 215.296 218.388  0.00  0.00     0.218 HD
ENDBRANCH  29  34
BRANCH  30  36
HETATM   36  O   UNK N   1     204.600 214.024 217.820  0.00  0.00    -0.358 OA
HETATM   37  H   UNK N   1     203.672 213.984 218.090  0.00  0.00     0.218 HD
ENDBRANCH  30  36
ENDBRANCH   3  26
BRANCH   7  38
HETATM   38  O   UNK N   1     202.795 204.885 218.936  0.00  0.00    -0.360 OA
HETATM   39  H   UNK N   1     201.955 205.310 219.163  0.00  0.00     0.217 HD
ENDBRANCH   7  38
BRANCH  10  40
HETATM   40  O   UNK N   1     206.839 204.275 221.377  0.00  0.00    -0.361 OA
HETATM   41  H   UNK N   1     207.787 204.450 221.470  0.00  0.00     0.217 HD
ENDBRANCH  10  40
TORSDOF 12
ENDMDL
MODEL 5
REMARK VINA RESULT:      -6.2      1.782      7.257
REMARK  12 active torsions:
REMARK  status: ('A' for Active; 'I' for Inactive)
REMARK    1  A    between atoms: O_2  and  C_12 
REMARK    2  A    between atoms: O_2  and  C_24 
REMARK    3  A    between atoms: O_3  and  C_18 
REMARK    4  A    between atoms: O_4  and  C_23 
REMARK    5  A    between atoms: O_5  and  C_25 
REMARK    6  A    between atoms: O_6  and  C_26 
REMARK    7  A    between atoms: O_8  and  C_27 
REMARK    8  A    between atoms: O_9  and  C_31 
REMARK    9  A    between atoms: O_10  and  C_32 
REMARK   10  A    between atoms: O_11  and  C_33 
REMARK   11  A    between atoms: C_13  and  C_16 
REMARK   12  A    between atoms: C_24  and  C_28 
ROOT
HETATM    1  O   UNK N   1     203.863 209.603 220.560  0.00  0.00    -0.338 OA
HETATM    2  C   UNK N   1     203.116 207.727 219.280  0.00  0.00     0.170 C 
HETATM    3  C   UNK N   1     202.721 208.966 220.098  0.00  0.00     0.192 C 
HETATM    4  C   UNK N   1     203.974 208.193 218.081  0.00  0.00     0.080 C 
HETATM    5  C   UNK N   1     205.061 209.156 218.522  0.00  0.00     0.011 A 
HETATM    6  C   UNK N   1     204.946 209.812 219.770  0.00  0.00     0.081 A 
HETATM    7  C   UNK N   1     206.171 209.419 217.700  0.00  0.00     0.077 A 
HETATM    8  C   UNK N   1     205.946 210.690 220.195  0.00  0.00     0.074 A 
HETATM    9  C   UNK N   1     207.165 210.313 218.135  0.00  0.00     0.073 A 
HETATM   10  C   UNK N   1     207.055 210.945 219.378  0.00  0.00     0.071 A 
ENDROOT
BRANCH   2  11
HETATM   11  O   UNK N   1     203.883 206.903 220.078  0.00  0.00    -0.309 OA
BRANCH  11  12
HETATM   12  C   UNK N   1     204.390 205.704 219.693  0.00  0.00     0.294 C 
HETATM   13  O   UNK N   1     203.836 205.044 218.826  0.00  0.00    -0.259 OA
BRANCH  12  14
HETATM   14  C   UNK N   1     205.621 205.211 220.345  0.00  0.00     0.045 A 
HETATM   15  C   UNK N   1     206.852 205.864 220.169  0.00  0.00     0.057 A 
HETATM   16  C   UNK N   1     208.008 205.370 220.794  0.00  0.00     0.102 A 
HETATM   17  C   UNK N   1     207.928 204.231 221.620  0.00  0.00     0.132 A 
HETATM   18  C   UNK N   1     206.695 203.593 221.811  0.00  0.00     0.102 A 
HETATM   19  C   UNK N   1     205.553 204.078 221.167  0.00  0.00     0.057 A 
BRANCH  16  20
HETATM   20  O   UNK N   1     209.195 205.984 220.605  0.00  0.00    -0.358 OA
HETATM   21  H   UNK N   1     209.506 206.686 221.194  0.00  0.00     0.218 HD
ENDBRANCH  16  20
BRANCH  17  22
HETATM   22  O   UNK N   1     209.026 203.739 222.233  0.00  0.00    -0.356 OA
HETATM   23  H   UNK N   1     209.242 203.947 223.153  0.00  0.00     0.218 HD
ENDBRANCH  17  22
BRANCH  18  24
HETATM   24  O   UNK N   1     206.614 202.515 222.617  0.00  0.00    -0.358 OA
HETATM   25  H   UNK N   1     206.023 201.775 222.419  0.00  0.00     0.218 HD
ENDBRANCH  18  24
ENDBRANCH  12  14
ENDBRANCH  11  12
ENDBRANCH   2  11
BRANCH   3  26
HETATM   26  C   UNK N   1     201.802 208.621 221.251  0.00  0.00    -0.021 A 
HETATM   27  C   UNK N   1     201.729 209.482 222.356  0.00  0.00     0.049 A 
HETATM   28  C   UNK N   1     200.891 209.182 223.440  0.00  0.00     0.102 A 
HETATM   29  C   UNK N   1     200.121 208.011 223.429  0.00  0.00     0.132 A 
HETATM   30  C   UNK N   1     200.186 207.141 222.325  0.00  0.00     0.102 A 
HETATM   31  C   UNK N   1     201.020 207.450 221.238  0.00  0.00     0.049 A 
BRANCH  28  32
HETATM   32  O   UNK N   1     200.822 210.017 224.498  0.00  0.00    -0.358 OA
HETATM   33  H   UNK N   1     201.596 210.202 225.051  0.00  0.00     0.218 HD
ENDBRANCH  28  32
BRANCH  29  34
HETATM   34  O   UNK N   1     199.326 207.734 224.486  0.00  0.00    -0.356 OA
HETATM   35  H   UNK N   1     198.364 207.821 224.448  0.00  0.00     0.218 HD
ENDBRANCH  29  34
BRANCH  30  36
HETATM   36  O   UNK N   1     199.448 206.009 222.314  0.00  0.00    -0.358 OA
HETATM   37  H   UNK N   1     198.492 206.023 222.168  0.00  0.00     0.218 HD
ENDBRANCH  30  36
ENDBRANCH   3  26
BRANCH   7  38
HETATM   38  O   UNK N   1     206.286 208.807 216.502  0.00  0.00    -0.360 OA
HETATM   39  H   UNK N   1     206.488 209.301 215.695  0.00  0.00     0.217 HD
ENDBRANCH   7  38
BRANCH  10  40
HETATM   40  O   UNK N   1     208.017 211.803 219.774  0.00  0.00    -0.361 OA
HETATM   41  H   UNK N   1     207.986 212.239 220.639  0.00  0.00     0.217 HD
ENDBRANCH  10  40
TORSDOF 12
ENDMDL
MODEL 6
REMARK VINA RESULT:      -6.2     22.278     24.810
REMARK  12 active torsions:
REMARK  status: ('A' for Active; 'I' for Inactive)
REMARK    1  A    between atoms: O_2  and  C_12 
REMARK    2  A    between atoms: O_2  and  C_24 
REMARK    3  A    between atoms: O_3  and  C_18 
REMARK    4  A    between atoms: O_4  and  C_23 
REMARK    5  A    between atoms: O_5  and  C_25 
REMARK    6  A    between atoms: O_6  and  C_26 
REMARK    7  A    between atoms: O_8  and  C_27 
REMARK    8  A    between atoms: O_9  and  C_31 
REMARK    9  A    between atoms: O_10  and  C_32 
REMARK   10  A    between atoms: O_11  and  C_33 
REMARK   11  A    between atoms: C_13  and  C_16 
REMARK   12  A    between atoms: C_24  and  C_28 
ROOT
HETATM    1  O   UNK N   1     224.060 211.233 235.054  0.00  0.00    -0.338 OA
HETATM    2  C   UNK N   1     223.545 213.372 235.989  0.00  0.00     0.170 C 
HETATM    3  C   UNK N   1     224.265 212.027 236.173  0.00  0.00     0.192 C 
HETATM    4  C   UNK N   1     224.134 214.069 234.740  0.00  0.00     0.080 C 
HETATM    5  C   UNK N   1     224.212 213.115 233.562  0.00  0.00     0.011 A 
HETATM    6  C   UNK N   1     224.158 211.720 233.791  0.00  0.00     0.081 A 
HETATM    7  C   UNK N   1     224.357 213.597 232.249  0.00  0.00     0.077 A 
HETATM    8  C   UNK N   1     224.217 210.830 232.715  0.00  0.00     0.074 A 
HETATM    9  C   UNK N   1     224.425 212.691 231.177  0.00  0.00     0.073 A 
HETATM   10  C   UNK N   1     224.353 211.313 231.408  0.00  0.00     0.071 A 
ENDROOT
BRANCH   2  11
HETATM   11  O   UNK N   1     222.205 213.124 235.766  0.00  0.00    -0.309 OA
BRANCH  11  12
HETATM   12  C   UNK N   1     221.190 213.624 236.516  0.00  0.00     0.294 C 
HETATM   13  O   UNK N   1     220.921 214.816 236.484  0.00  0.00    -0.259 OA
BRANCH  12  14
HETATM   14  C   UNK N   1     220.419 212.699 237.372  0.00  0.00     0.045 A 
HETATM   15  C   UNK N   1     220.458 212.797 238.773  0.00  0.00     0.057 A 
HETATM   16  C   UNK N   1     219.720 211.900 239.563  0.00  0.00     0.102 A 
HETATM   17  C   UNK N   1     218.920 210.916 238.949  0.00  0.00     0.132 A 
HETATM   18  C   UNK N   1     218.866 210.833 237.551  0.00  0.00     0.102 A 
HETATM   19  C   UNK N   1     219.620 211.715 236.771  0.00  0.00     0.057 A 
BRANCH  16  20
HETATM   20  O   UNK N   1     219.777 211.979 240.909  0.00  0.00    -0.358 OA
HETATM   21  H   UNK N   1     219.169 211.483 241.476  0.00  0.00     0.218 HD
ENDBRANCH  16  20
BRANCH  17  22
HETATM   22  O   UNK N   1     218.201 210.044 239.688  0.00  0.00    -0.356 OA
HETATM   23  H   UNK N   1     217.847 210.273 240.559  0.00  0.00     0.218 HD
ENDBRANCH  17  22
BRANCH  18  24
HETATM   24  O   UNK N   1     218.085 209.905 236.962  0.00  0.00    -0.358 OA
HETATM   25  H   UNK N   1     218.251 209.600 236.058  0.00  0.00     0.218 HD
ENDBRANCH  18  24
ENDBRANCH  12  14
ENDBRANCH  11  12
ENDBRANCH   2  11
BRANCH   3  26
HETATM   26  C   UNK N   1     223.817 211.305 237.426  0.00  0.00    -0.021 A 
HETATM   27  C   UNK N   1     222.844 210.300 237.331  0.00  0.00     0.049 A 
HETATM   28  C   UNK N   1     222.406 209.621 238.477  0.00  0.00     0.102 A 
HETATM   29  C   UNK N   1     222.937 209.947 239.732  0.00  0.00     0.132 A 
HETATM   30  C   UNK N   1     223.915 210.953 239.839  0.00  0.00     0.102 A 
HETATM   31  C   UNK N   1     224.356 211.625 238.686  0.00  0.00     0.049 A 
BRANCH  28  32
HETATM   32  O   UNK N   1     221.472 208.651 238.378  0.00  0.00    -0.358 OA
HETATM   33  H   UNK N   1     221.198 208.294 237.520  0.00  0.00     0.218 HD
ENDBRANCH  28  32
BRANCH  29  34
HETATM   34  O   UNK N   1     222.497 209.288 240.827  0.00  0.00    -0.356 OA
HETATM   35  H   UNK N   1     222.168 208.379 240.789  0.00  0.00     0.218 HD
ENDBRANCH  29  34
BRANCH  30  36
HETATM   36  O   UNK N   1     224.425 211.273 241.048  0.00  0.00    -0.358 OA
HETATM   37  H   UNK N   1     225.260 211.753 241.141  0.00  0.00     0.218 HD
ENDBRANCH  30  36
ENDBRANCH   3  26
BRANCH   7  38
HETATM   38  O   UNK N   1     224.421 214.925 232.021  0.00  0.00    -0.360 OA
HETATM   39  H   UNK N   1     224.747 215.283 231.182  0.00  0.00     0.217 HD
ENDBRANCH   7  38
BRANCH  10  40
HETATM   40  O   UNK N   1     224.425 210.460 230.365  0.00  0.00    -0.361 OA
HETATM   41  H   UNK N   1     224.275 210.754 229.455  0.00  0.00     0.217 HD
ENDBRANCH  10  40
TORSDOF 12
ENDMDL
MODEL 7
REMARK VINA RESULT:      -6.1     22.358     25.038
REMARK  12 active torsions:
REMARK  status: ('A' for Active; 'I' for Inactive)
REMARK    1  A    between atoms: O_2  and  C_12 
REMARK    2  A    between atoms: O_2  and  C_24 
REMARK    3  A    between atoms: O_3  and  C_18 
REMARK    4  A    between atoms: O_4  and  C_23 
REMARK    5  A    between atoms: O_5  and  C_25 
REMARK    6  A    between atoms: O_6  and  C_26 
REMARK    7  A    between atoms: O_8  and  C_27 
REMARK    8  A    between atoms: O_9  and  C_31 
REMARK    9  A    between atoms: O_10  and  C_32 
REMARK   10  A    between atoms: O_11  and  C_33 
REMARK   11  A    between atoms: C_13  and  C_16 
REMARK   12  A    between atoms: C_24  and  C_28 
ROOT
HETATM    1  O   UNK N   1     224.110 211.394 235.223  0.00  0.00    -0.338 OA
HETATM    2  C   UNK N   1     223.571 213.545 236.116  0.00  0.00     0.170 C 
HETATM    3  C   UNK N   1     224.317 212.217 236.320  0.00  0.00     0.192 C 
HETATM    4  C   UNK N   1     224.131 214.223 234.843  0.00  0.00     0.080 C 
HETATM    5  C   UNK N   1     224.210 213.243 233.687  0.00  0.00     0.011 A 
HETATM    6  C   UNK N   1     224.183 211.853 233.948  0.00  0.00     0.081 A 
HETATM    7  C   UNK N   1     224.328 213.698 232.361  0.00  0.00     0.077 A 
HETATM    8  C   UNK N   1     224.243 210.940 232.892  0.00  0.00     0.074 A 
HETATM    9  C   UNK N   1     224.398 212.768 231.309  0.00  0.00     0.073 A 
HETATM   10  C   UNK N   1     224.352 211.395 231.572  0.00  0.00     0.071 A 
ENDROOT
BRANCH   2  11
HETATM   11  O   UNK N   1     222.233 213.269 235.918  0.00  0.00    -0.309 OA
BRANCH  11  12
HETATM   12  C   UNK N   1     221.234 213.632 236.762  0.00  0.00     0.294 C 
HETATM   13  O   UNK N   1     220.965 214.811 236.938  0.00  0.00    -0.259 OA
BRANCH  12  14
HETATM   14  C   UNK N   1     220.481 212.573 237.466  0.00  0.00     0.045 A 
HETATM   15  C   UNK N   1     219.838 211.542 236.761  0.00  0.00     0.057 A 
HETATM   16  C   UNK N   1     219.123 210.553 237.455  0.00  0.00     0.102 A 
HETATM   17  C   UNK N   1     219.071 210.581 238.863  0.00  0.00     0.132 A 
HETATM   18  C   UNK N   1     219.731 211.598 239.566  0.00  0.00     0.102 A 
HETATM   19  C   UNK N   1     220.423 212.592 238.867  0.00  0.00     0.057 A 
BRANCH  16  20
HETATM   20  O   UNK N   1     218.484 209.576 236.776  0.00  0.00    -0.358 OA
HETATM   21  H   UNK N   1     217.794 209.037 237.187  0.00  0.00     0.218 HD
ENDBRANCH  16  20
BRANCH  17  22
HETATM   22  O   UNK N   1     218.392 209.639 239.552  0.00  0.00    -0.356 OA
HETATM   23  H   UNK N   1     217.430 209.548 239.495  0.00  0.00     0.218 HD
ENDBRANCH  17  22
BRANCH  18  24
HETATM   24  O   UNK N   1     219.699 211.614 240.914  0.00  0.00    -0.358 OA
HETATM   25  H   UNK N   1     219.619 210.799 241.430  0.00  0.00     0.218 HD
ENDBRANCH  18  24
ENDBRANCH  12  14
ENDBRANCH  11  12
ENDBRANCH   2  11
BRANCH   3  26
HETATM   26  C   UNK N   1     223.899 211.517 237.596  0.00  0.00    -0.021 A 
HETATM   27  C   UNK N   1     224.284 212.052 238.833  0.00  0.00     0.049 A 
HETATM   28  C   UNK N   1     223.916 211.420 240.029  0.00  0.00     0.102 A 
HETATM   29  C   UNK N   1     223.160 210.241 239.996  0.00  0.00     0.132 A 
HETATM   30  C   UNK N   1     222.766 209.696 238.760  0.00  0.00     0.102 A 
HETATM   31  C   UNK N   1     223.131 210.338 237.565  0.00  0.00     0.049 A 
BRANCH  28  32
HETATM   32  O   UNK N   1     224.288 211.942 241.217  0.00  0.00    -0.358 OA
HETATM   33  H   UNK N   1     224.554 212.870 241.304  0.00  0.00     0.218 HD
ENDBRANCH  28  32
BRANCH  29  34
HETATM   34  O   UNK N   1     222.821 209.640 241.159  0.00  0.00    -0.356 OA
HETATM   35  H   UNK N   1     222.949 208.694 241.311  0.00  0.00     0.218 HD
ENDBRANCH  29  34
BRANCH  30  36
HETATM   36  O   UNK N   1     222.041 208.557 238.725  0.00  0.00    -0.358 OA
HETATM   37  H   UNK N   1     221.825 208.062 239.528  0.00  0.00     0.218 HD
ENDBRANCH  30  36
ENDBRANCH   3  26
BRANCH   7  38
HETATM   38  O   UNK N   1     224.366 215.021 232.101  0.00  0.00    -0.360 OA
HETATM   39  H   UNK N   1     223.598 215.493 231.748  0.00  0.00     0.217 HD
ENDBRANCH   7  38
BRANCH  10  40
HETATM   40  O   UNK N   1     224.425 210.520 230.548  0.00  0.00    -0.361 OA
HETATM   41  H   UNK N   1     224.503 209.566 230.698  0.00  0.00     0.217 HD
ENDBRANCH  10  40
TORSDOF 12
ENDMDL
MODEL 8
REMARK VINA RESULT:      -6.0     21.489     24.393
REMARK  12 active torsions:
REMARK  status: ('A' for Active; 'I' for Inactive)
REMARK    1  A    between atoms: O_2  and  C_12 
REMARK    2  A    between atoms: O_2  and  C_24 
REMARK    3  A    between atoms: O_3  and  C_18 
REMARK    4  A    between atoms: O_4  and  C_23 
REMARK    5  A    between atoms: O_5  and  C_25 
REMARK    6  A    between atoms: O_6  and  C_26 
REMARK    7  A    between atoms: O_8  and  C_27 
REMARK    8  A    between atoms: O_9  and  C_31 
REMARK    9  A    between atoms: O_10  and  C_32 
REMARK   10  A    between atoms: O_11  and  C_33 
REMARK   11  A    between atoms: C_13  and  C_16 
REMARK   12  A    between atoms: C_24  and  C_28 
ROOT
HETATM    1  O   UNK N   1     220.378 210.936 239.200  0.00  0.00    -0.338 OA
HETATM    2  C   UNK N   1     222.668 210.263 239.073  0.00  0.00     0.170 C 
HETATM    3  C   UNK N   1     221.676 211.422 239.255  0.00  0.00     0.192 C 
HETATM    4  C   UNK N   1     222.443 209.249 240.219  0.00  0.00     0.080 C 
HETATM    5  C   UNK N   1     220.969 208.930 240.390  0.00  0.00     0.011 A 
HETATM    6  C   UNK N   1     219.999 209.806 239.849  0.00  0.00     0.081 A 
HETATM    7  C   UNK N   1     220.554 207.786 241.095  0.00  0.00     0.077 A 
HETATM    8  C   UNK N   1     218.639 209.517 239.988  0.00  0.00     0.074 A 
HETATM    9  C   UNK N   1     219.183 207.513 241.237  0.00  0.00     0.073 A 
HETATM   10  C   UNK N   1     218.228 208.373 240.684  0.00  0.00     0.071 A 
ENDROOT
BRANCH   2  11
HETATM   11  O   UNK N   1     222.397 209.639 237.871  0.00  0.00    -0.309 OA
BRANCH  11  12
HETATM   12  C   UNK N   1     223.213 209.658 236.787  0.00  0.00     0.294 C 
HETATM   13  O   UNK N   1     224.424 209.554 236.918  0.00  0.00    -0.259 OA
BRANCH  12  14
HETATM   14  C   UNK N   1     222.610 209.808 235.447  0.00  0.00     0.045 A 
HETATM   15  C   UNK N   1     221.381 209.207 235.128  0.00  0.00     0.057 A 
HETATM   16  C   UNK N   1     220.834 209.360 233.843  0.00  0.00     0.102 A 
HETATM   17  C   UNK N   1     221.507 210.138 232.881  0.00  0.00     0.132 A 
HETATM   18  C   UNK N   1     222.723 210.754 233.208  0.00  0.00     0.102 A 
HETATM   19  C   UNK N   1     223.272 210.579 234.481  0.00  0.00     0.057 A 
BRANCH  16  20
HETATM   20  O   UNK N   1     219.665 208.762 233.530  0.00  0.00    -0.358 OA
HETATM   21  H   UNK N   1     218.812 209.157 233.760  0.00  0.00     0.218 HD
ENDBRANCH  16  20
BRANCH  17  22
HETATM   22  O   UNK N   1     220.999 210.301 231.640  0.00  0.00    -0.356 OA
HETATM   23  H   UNK N   1     221.558 210.478 230.871  0.00  0.00     0.218 HD
ENDBRANCH  17  22
BRANCH  18  24
HETATM   24  O   UNK N   1     223.358 211.515 232.294  0.00  0.00    -0.358 OA
HETATM   25  H   UNK N   1     222.872 212.085 231.680  0.00  0.00     0.218 HD
ENDBRANCH  18  24
ENDBRANCH  12  14
ENDBRANCH  11  12
ENDBRANCH   2  11
BRANCH   3  26
HETATM   26  C   UNK N   1     221.878 212.514 238.226  0.00  0.00    -0.021 A 
HETATM   27  C   UNK N   1     220.842 212.817 237.331  0.00  0.00     0.049 A 
HETATM   28  C   UNK N   1     221.005 213.819 236.364  0.00  0.00     0.102 A 
HETATM   29  C   UNK N   1     222.213 214.526 236.282  0.00  0.00     0.132 A 
HETATM   30  C   UNK N   1     223.259 214.231 237.176  0.00  0.00     0.102 A 
HETATM   31  C   UNK N   1     223.087 213.231 238.148  0.00  0.00     0.049 A 
BRANCH  28  32
HETATM   32  O   UNK N   1     220.002 214.109 235.508  0.00  0.00    -0.358 OA
HETATM   33  H   UNK N   1     219.092 213.821 235.674  0.00  0.00     0.218 HD
ENDBRANCH  28  32
BRANCH  29  34
HETATM   34  O   UNK N   1     222.355 215.482 235.338  0.00  0.00    -0.356 OA
HETATM   35  H   UNK N   1     223.045 215.445 234.661  0.00  0.00     0.218 HD
ENDBRANCH  29  34
BRANCH  30  36
HETATM   36  O   UNK N   1     224.425 214.906 237.096  0.00  0.00    -0.358 OA
HETATM   37  H   UNK N   1     225.151 214.752 237.717  0.00  0.00     0.218 HD
ENDBRANCH  30  36
ENDBRANCH   3  26
BRANCH   7  38
HETATM   38  O   UNK N   1     221.471 206.949 241.625  0.00  0.00    -0.360 OA
HETATM   39  H   UNK N   1     221.515 206.016 241.373  0.00  0.00     0.217 HD
ENDBRANCH   7  38
BRANCH  10  40
HETATM   40  O   UNK N   1     216.917 208.096 240.835  0.00  0.00    -0.361 OA
HETATM   41  H   UNK N   1     216.229 208.711 240.540  0.00  0.00     0.217 HD
ENDBRANCH  10  40
TORSDOF 12
ENDMDL
MODEL 9
REMARK VINA RESULT:      -5.9     21.406     24.372
REMARK  12 active torsions:
REMARK  status: ('A' for Active; 'I' for Inactive)
REMARK    1  A    between atoms: O_2  and  C_12 
REMARK    2  A    between atoms: O_2  and  C_24 
REMARK    3  A    between atoms: O_3  and  C_18 
REMARK    4  A    between atoms: O_4  and  C_23 
REMARK    5  A    between atoms: O_5  and  C_25 
REMARK    6  A    between atoms: O_6  and  C_26 
REMARK    7  A    between atoms: O_8  and  C_27 
REMARK    8  A    between atoms: O_9  and  C_31 
REMARK    9  A    between atoms: O_10  and  C_32 
REMARK   10  A    between atoms: O_11  and  C_33 
REMARK   11  A    between atoms: C_13  and  C_16 
REMARK   12  A    between atoms: C_24  and  C_28 
ROOT
HETATM    1  O   UNK N   1     220.272 210.916 239.060  0.00  0.00    -0.338 OA
HETATM    2  C   UNK N   1     222.577 210.284 239.018  0.00  0.00     0.170 C 
HETATM    3  C   UNK N   1     221.559 211.428 239.139  0.00  0.00     0.192 C 
HETATM    4  C   UNK N   1     222.337 209.297 240.185  0.00  0.00     0.080 C 
HETATM    5  C   UNK N   1     220.864 208.955 240.322  0.00  0.00     0.011 A 
HETATM    6  C   UNK N   1     219.895 209.797 239.728  0.00  0.00     0.081 A 
HETATM    7  C   UNK N   1     220.449 207.823 241.046  0.00  0.00     0.077 A 
HETATM    8  C   UNK N   1     218.536 209.487 239.835  0.00  0.00     0.074 A 
HETATM    9  C   UNK N   1     219.079 207.529 241.154  0.00  0.00     0.073 A 
HETATM   10  C   UNK N   1     218.126 208.355 240.550  0.00  0.00     0.071 A 
ENDROOT
BRANCH   2  11
HETATM   11  O   UNK N   1     222.353 209.623 237.827  0.00  0.00    -0.309 OA
BRANCH  11  12
HETATM   12  C   UNK N   1     223.197 209.633 236.764  0.00  0.00     0.294 C 
HETATM   13  O   UNK N   1     224.399 209.476 236.922  0.00  0.00    -0.259 OA
BRANCH  12  14
HETATM   14  C   UNK N   1     222.635 209.842 235.414  0.00  0.00     0.045 A 
HETATM   15  C   UNK N   1     223.298 210.634 234.462  0.00  0.00     0.057 A 
HETATM   16  C   UNK N   1     222.737 210.821 233.187  0.00  0.00     0.102 A 
HETATM   17  C   UNK N   1     221.520 210.194 232.856  0.00  0.00     0.132 A 
HETATM   18  C   UNK N   1     220.871 209.387 233.800  0.00  0.00     0.102 A 
HETATM   19  C   UNK N   1     221.424 209.223 235.074  0.00  0.00     0.057 A 
BRANCH  16  20
HETATM   20  O   UNK N   1     223.362 211.602 232.281  0.00  0.00    -0.358 OA
HETATM   21  H   UNK N   1     222.914 212.345 231.852  0.00  0.00     0.218 HD
ENDBRANCH  16  20
BRANCH  17  22
HETATM   22  O   UNK N   1     220.963 210.358 231.637  0.00  0.00    -0.356 OA
HETATM   23  H   UNK N   1     220.457 209.658 231.200  0.00  0.00     0.218 HD
ENDBRANCH  17  22
BRANCH  18  24
HETATM   24  O   UNK N   1     219.717 208.769 233.477  0.00  0.00    -0.358 OA
HETATM   25  H   UNK N   1     218.905 209.267 233.302  0.00  0.00     0.218 HD
ENDBRANCH  18  24
ENDBRANCH  12  14
ENDBRANCH  11  12
ENDBRANCH   2  11
BRANCH   3  26
HETATM   26  C   UNK N   1     221.772 212.496 238.086  0.00  0.00    -0.021 A 
HETATM   27  C   UNK N   1     223.005 213.159 238.017  0.00  0.00     0.049 A 
HETATM   28  C   UNK N   1     223.226 214.156 237.057  0.00  0.00     0.102 A 
HETATM   29  C   UNK N   1     222.209 214.502 236.157  0.00  0.00     0.132 A 
HETATM   30  C   UNK N   1     220.968 213.842 236.216  0.00  0.00     0.102 A 
HETATM   31  C   UNK N   1     220.754 212.838 237.175  0.00  0.00     0.049 A 
BRANCH  28  32
HETATM   32  O   UNK N   1     224.417 214.788 236.994  0.00  0.00    -0.358 OA
HETATM   33  H   UNK N   1     224.479 215.753 236.944  0.00  0.00     0.218 HD
ENDBRANCH  28  32
BRANCH  29  34
HETATM   34  O   UNK N   1     222.437 215.471 235.243  0.00  0.00    -0.356 OA
HETATM   35  H   UNK N   1     222.719 215.276 234.339  0.00  0.00     0.218 HD
ENDBRANCH  29  34
BRANCH  30  36
HETATM   36  O   UNK N   1     219.984 214.176 235.353  0.00  0.00    -0.358 OA
HETATM   37  H   UNK N   1     219.336 213.530 235.039  0.00  0.00     0.218 HD
ENDBRANCH  30  36
ENDBRANCH   3  26
BRANCH   7  38
HETATM   38  O   UNK N   1     221.365 207.018 241.625  0.00  0.00    -0.360 OA
HETATM   39  H   UNK N   1     221.753 207.227 242.487  0.00  0.00     0.217 HD
ENDBRANCH   7  38
BRANCH  10  40
HETATM   40  O   UNK N   1     216.816 208.057 240.671  0.00  0.00    -0.361 OA
HETATM   41  H   UNK N   1     216.227 208.571 241.243  0.00  0.00     0.217 HD
ENDBRANCH  10  40
TORSDOF 12
ENDMDL
