MODEL 1
REMARK VINA RESULT:      -6.9      0.000      0.000
REMARK  7 active torsions:
REMARK  status: ('A' for Active; 'I' for Inactive)
REMARK    1  A    between atoms: O_2  and  C_8 
REMARK    2  A    between atoms: O_3  and  C_14 
REMARK    3  A    between atoms: O_4  and  C_19 
REMARK    4  A    between atoms: O_5  and  C_20 
REMARK    5  A    between atoms: O_6  and  C_21 
REMARK    6  A    between atoms: O_7  and  C_22 
REMARK    7  A    between atoms: C_9  and  C_12 
ROOT
HETATM    1  O   UNK N   1     204.431 207.118 221.799  0.00  0.00    -0.338 OA
HETATM    2  C   UNK N   1     205.054 207.389 219.512  0.00  0.00     0.156 C 
HETATM    3  C   UNK N   1     204.811 206.410 220.673  0.00  0.00     0.191 C 
HETATM    4  C   UNK N   1     203.765 208.190 219.241  0.00  0.00     0.079 C 
HETATM    5  C   UNK N   1     203.121 208.673 220.523  0.00  0.00     0.011 A 
HETATM    6  C   UNK N   1     203.502 208.102 221.758  0.00  0.00     0.081 A 
HETATM    7  C   UNK N   1     202.126 209.665 220.496  0.00  0.00     0.077 A 
HETATM    8  C   UNK N   1     202.912 208.539 222.945  0.00  0.00     0.074 A 
HETATM    9  C   UNK N   1     201.535 210.093 221.696  0.00  0.00     0.073 A 
HETATM   10  C   UNK N   1     201.925 209.532 222.918  0.00  0.00     0.071 A 
ENDROOT
BRANCH   3  11
HETATM   11  C   UNK N   1     206.038 205.598 221.003  0.00  0.00    -0.021 A 
HETATM   12  C   UNK N   1     205.916 204.393 221.707  0.00  0.00     0.049 A 
HETATM   13  C   UNK N   1     207.052 203.635 222.022  0.00  0.00     0.102 A 
HETATM   14  C   UNK N   1     208.327 204.086 221.626  0.00  0.00     0.132 A 
HETATM   15  C   UNK N   1     208.454 205.292 220.924  0.00  0.00     0.102 A 
HETATM   16  C   UNK N   1     207.313 206.046 220.618  0.00  0.00     0.049 A 
BRANCH  13  17
HETATM   17  O   UNK N   1     206.925 202.478 222.704  0.00  0.00    -0.358 OA
HETATM   18  H   UNK N   1     206.569 202.455 223.604  0.00  0.00     0.218 HD
ENDBRANCH  13  17
BRANCH  14  19
HETATM   19  O   UNK N   1     209.435 203.369 221.914  0.00  0.00    -0.356 OA
HETATM   20  H   UNK N   1     209.651 202.545 221.456  0.00  0.00     0.218 HD
ENDBRANCH  14  19
BRANCH  15  21
HETATM   21  O   UNK N   1     209.675 205.721 220.544  0.00  0.00    -0.358 OA
HETATM   22  H   UNK N   1     210.254 206.210 221.149  0.00  0.00     0.218 HD
ENDBRANCH  15  21
ENDBRANCH   3  11
BRANCH   2  23
HETATM   23  O   UNK N   1     205.453 206.694 218.360  0.00  0.00    -0.392 OA
HETATM   24  H   UNK N   1     204.626 206.379 217.911  0.00  0.00     0.210 HD
ENDBRANCH   2  23
BRANCH   7  25
HETATM   25  O   UNK N   1     201.750 210.211 219.320  0.00  0.00    -0.360 OA
HETATM   26  H   UNK N   1     200.849 210.115 218.979  0.00  0.00     0.217 HD
ENDBRANCH   7  25
BRANCH  10  27
HETATM   27  O   UNK N   1     201.342 209.948 224.060  0.00  0.00    -0.361 OA
HETATM   28  H   UNK N   1     200.461 209.642 224.322  0.00  0.00     0.217 HD
ENDBRANCH  10  27
TORSDOF 7
ENDMDL
MODEL 2
REMARK VINA RESULT:      -6.5      2.550      6.737
REMARK  7 active torsions:
REMARK  status: ('A' for Active; 'I' for Inactive)
REMARK    1  A    between atoms: O_2  and  C_8 
REMARK    2  A    between atoms: O_3  and  C_14 
REMARK    3  A    between atoms: O_4  and  C_19 
REMARK    4  A    between atoms: O_5  and  C_20 
REMARK    5  A    between atoms: O_6  and  C_21 
REMARK    6  A    between atoms: O_7  and  C_22 
REMARK    7  A    between atoms: C_9  and  C_12 
ROOT
HETATM    1  O   UNK N   1     206.447 206.314 220.290  0.00  0.00    -0.338 OA
HETATM    2  C   UNK N   1     204.109 206.387 220.763  0.00  0.00     0.156 C 
HETATM    3  C   UNK N   1     205.223 206.643 219.734  0.00  0.00     0.191 C 
HETATM    4  C   UNK N   1     204.134 204.904 221.183  0.00  0.00     0.079 C 
HETATM    5  C   UNK N   1     205.543 204.415 221.448  0.00  0.00     0.011 A 
HETATM    6  C   UNK N   1     206.644 205.167 220.981  0.00  0.00     0.081 A 
HETATM    7  C   UNK N   1     205.767 203.206 222.128  0.00  0.00     0.077 A 
HETATM    8  C   UNK N   1     207.947 204.724 221.217  0.00  0.00     0.074 A 
HETATM    9  C   UNK N   1     207.081 202.767 222.355  0.00  0.00     0.073 A 
HETATM   10  C   UNK N   1     208.169 203.522 221.901  0.00  0.00     0.071 A 
ENDROOT
BRANCH   3  11
HETATM   11  C   UNK N   1     205.267 208.082 219.285  0.00  0.00    -0.021 A 
HETATM   12  C   UNK N   1     204.468 208.511 218.217  0.00  0.00     0.049 A 
HETATM   13  C   UNK N   1     204.507 209.845 217.791  0.00  0.00     0.102 A 
HETATM   14  C   UNK N   1     205.353 210.765 218.443  0.00  0.00     0.132 A 
HETATM   15  C   UNK N   1     206.156 210.339 219.510  0.00  0.00     0.102 A 
HETATM   16  C   UNK N   1     206.115 209.002 219.926  0.00  0.00     0.049 A 
BRANCH  13  17
HETATM   17  O   UNK N   1     203.737 210.248 216.759  0.00  0.00    -0.358 OA
HETATM   18  H   UNK N   1     203.998 210.093 215.840  0.00  0.00     0.218 HD
ENDBRANCH  13  17
BRANCH  14  19
HETATM   19  O   UNK N   1     205.403 212.057 218.053  0.00  0.00    -0.356 OA
HETATM   20  H   UNK N   1     204.614 212.615 218.013  0.00  0.00     0.218 HD
ENDBRANCH  14  19
BRANCH  15  21
HETATM   21  O   UNK N   1     206.965 211.221 220.133  0.00  0.00    -0.358 OA
HETATM   22  H   UNK N   1     206.809 211.496 221.050  0.00  0.00     0.218 HD
ENDBRANCH  15  21
ENDBRANCH   3  11
BRANCH   2  23
HETATM   23  O   UNK N   1     202.858 206.725 220.225  0.00  0.00    -0.392 OA
HETATM   24  H   UNK N   1     202.317 207.104 220.967  0.00  0.00     0.210 HD
ENDBRANCH   2  23
BRANCH   7  25
HETATM   25  O   UNK N   1     204.720 202.478 222.570  0.00  0.00    -0.360 OA
HETATM   26  H   UNK N   1     203.898 202.894 222.867  0.00  0.00     0.217 HD
ENDBRANCH   7  25
BRANCH  10  27
HETATM   27  O   UNK N   1     209.425 203.082 222.120  0.00  0.00    -0.361 OA
HETATM   28  H   UNK N   1     209.599 202.205 222.493  0.00  0.00     0.217 HD
ENDBRANCH  10  27
TORSDOF 7
ENDMDL
MODEL 3
REMARK VINA RESULT:      -6.3     22.782     24.222
REMARK  7 active torsions:
REMARK  status: ('A' for Active; 'I' for Inactive)
REMARK    1  A    between atoms: O_2  and  C_8 
REMARK    2  A    between atoms: O_3  and  C_14 
REMARK    3  A    between atoms: O_4  and  C_19 
REMARK    4  A    between atoms: O_5  and  C_20 
REMARK    5  A    between atoms: O_6  and  C_21 
REMARK    6  A    between atoms: O_7  and  C_22 
REMARK    7  A    between atoms: C_9  and  C_12 
ROOT
HETATM    1  O   UNK N   1     220.918 212.262 237.004  0.00  0.00    -0.338 OA
HETATM    2  C   UNK N   1     221.161 210.309 238.354  0.00  0.00     0.156 C 
HETATM    3  C   UNK N   1     220.195 211.328 237.726  0.00  0.00     0.191 C 
HETATM    4  C   UNK N   1     221.973 209.622 237.238  0.00  0.00     0.079 C 
HETATM    5  C   UNK N   1     222.477 210.616 236.213  0.00  0.00     0.011 A 
HETATM    6  C   UNK N   1     221.912 211.910 236.156  0.00  0.00     0.081 A 
HETATM    7  C   UNK N   1     223.480 210.255 235.297  0.00  0.00     0.077 A 
HETATM    8  C   UNK N   1     222.367 212.832 235.211  0.00  0.00     0.074 A 
HETATM    9  C   UNK N   1     223.925 211.189 234.348  0.00  0.00     0.073 A 
HETATM   10  C   UNK N   1     223.372 212.475 234.303  0.00  0.00     0.071 A 
ENDROOT
BRANCH   3  11
HETATM   11  C   UNK N   1     219.373 212.051 238.763  0.00  0.00    -0.021 A 
HETATM   12  C   UNK N   1     218.047 211.665 239.004  0.00  0.00     0.049 A 
HETATM   13  C   UNK N   1     217.275 212.335 239.963  0.00  0.00     0.102 A 
HETATM   14  C   UNK N   1     217.835 213.403 240.693  0.00  0.00     0.132 A 
HETATM   15  C   UNK N   1     219.159 213.793 240.452  0.00  0.00     0.102 A 
HETATM   16  C   UNK N   1     219.922 213.122 239.488  0.00  0.00     0.049 A 
BRANCH  13  17
HETATM   17  O   UNK N   1     215.999 211.958 240.185  0.00  0.00    -0.358 OA
HETATM   18  H   UNK N   1     215.758 211.030 240.318  0.00  0.00     0.218 HD
ENDBRANCH  13  17
BRANCH  14  19
HETATM   19  O   UNK N   1     217.111 214.059 241.625  0.00  0.00    -0.356 OA
HETATM   20  H   UNK N   1     217.407 214.892 242.016  0.00  0.00     0.218 HD
ENDBRANCH  14  19
BRANCH  15  21
HETATM   21  O   UNK N   1     219.693 214.815 241.153  0.00  0.00    -0.358 OA
HETATM   22  H   UNK N   1     219.546 215.739 240.900  0.00  0.00     0.218 HD
ENDBRANCH  15  21
ENDBRANCH   3  11
BRANCH   2  23
HETATM   23  O   UNK N   1     220.450 209.358 239.103  0.00  0.00    -0.392 OA
HETATM   24  H   UNK N   1     219.506 209.663 239.138  0.00  0.00     0.210 HD
ENDBRANCH   2  23
BRANCH   7  25
HETATM   25  O   UNK N   1     224.018 209.018 235.340  0.00  0.00    -0.360 OA
HETATM   26  H   UNK N   1     224.759 208.765 234.770  0.00  0.00     0.217 HD
ENDBRANCH   7  25
BRANCH  10  27
HETATM   27  O   UNK N   1     223.805 213.356 233.380  0.00  0.00    -0.361 OA
HETATM   28  H   UNK N   1     224.356 214.115 233.620  0.00  0.00     0.217 HD
ENDBRANCH  10  27
TORSDOF 7
ENDMDL
MODEL 4
REMARK VINA RESULT:      -6.2     22.466     24.537
REMARK  7 active torsions:
REMARK  status: ('A' for Active; 'I' for Inactive)
REMARK    1  A    between atoms: O_2  and  C_8 
REMARK    2  A    between atoms: O_3  and  C_14 
REMARK    3  A    between atoms: O_4  and  C_19 
REMARK    4  A    between atoms: O_5  and  C_20 
REMARK    5  A    between atoms: O_6  and  C_21 
REMARK    6  A    between atoms: O_7  and  C_22 
REMARK    7  A    between atoms: C_9  and  C_12 
ROOT
HETATM    1  O   UNK N   1     223.687 211.281 235.097  0.00  0.00    -0.338 OA
HETATM    2  C   UNK N   1     223.255 213.378 236.150  0.00  0.00     0.156 C 
HETATM    3  C   UNK N   1     223.884 211.980 236.275  0.00  0.00     0.191 C 
HETATM    4  C   UNK N   1     223.898 214.122 234.963  0.00  0.00     0.079 C 
HETATM    5  C   UNK N   1     224.028 213.235 233.744  0.00  0.00     0.011 A 
HETATM    6  C   UNK N   1     223.908 211.833 233.881  0.00  0.00     0.081 A 
HETATM    7  C   UNK N   1     224.298 213.787 232.480  0.00  0.00     0.077 A 
HETATM    8  C   UNK N   1     224.030 211.006 232.763  0.00  0.00     0.074 A 
HETATM    9  C   UNK N   1     224.425 212.944 231.364  0.00  0.00     0.073 A 
HETATM   10  C   UNK N   1     224.291 211.557 231.503  0.00  0.00     0.071 A 
ENDROOT
BRANCH   3  11
HETATM   11  C   UNK N   1     223.292 211.186 237.412  0.00  0.00    -0.021 A 
HETATM   12  C   UNK N   1     224.130 210.516 238.314  0.00  0.00     0.049 A 
HETATM   13  C   UNK N   1     223.588 209.773 239.371  0.00  0.00     0.102 A 
HETATM   14  C   UNK N   1     222.189 209.699 239.531  0.00  0.00     0.132 A 
HETATM   15  C   UNK N   1     221.348 210.366 238.630  0.00  0.00     0.102 A 
HETATM   16  C   UNK N   1     221.898 211.102 237.573  0.00  0.00     0.049 A 
BRANCH  13  17
HETATM   17  O   UNK N   1     224.403 209.128 240.231  0.00  0.00    -0.358 OA
HETATM   18  H   UNK N   1     224.192 209.054 241.173  0.00  0.00     0.218 HD
ENDBRANCH  13  17
BRANCH  14  19
HETATM   19  O   UNK N   1     221.645 208.993 240.545  0.00  0.00    -0.356 OA
HETATM   20  H   UNK N   1     221.965 209.065 241.454  0.00  0.00     0.218 HD
ENDBRANCH  14  19
BRANCH  15  21
HETATM   21  O   UNK N   1     220.009 210.295 238.786  0.00  0.00    -0.358 OA
HETATM   22  H   UNK N   1     219.430 211.037 238.557  0.00  0.00     0.218 HD
ENDBRANCH  15  21
ENDBRANCH   3  11
BRANCH   2  23
HETATM   23  O   UNK N   1     223.431 214.102 237.339  0.00  0.00    -0.392 OA
HETATM   24  H   UNK N   1     224.405 214.110 237.532  0.00  0.00     0.210 HD
ENDBRANCH   2  23
BRANCH   7  25
HETATM   25  O   UNK N   1     224.423 215.124 232.341  0.00  0.00    -0.360 OA
HETATM   26  H   UNK N   1     224.654 215.529 231.493  0.00  0.00     0.217 HD
ENDBRANCH   7  25
BRANCH  10  27
HETATM   27  O   UNK N   1     224.425 210.762 230.422  0.00  0.00    -0.361 OA
HETATM   28  H   UNK N   1     225.267 210.338 230.203  0.00  0.00     0.217 HD
ENDBRANCH  10  27
TORSDOF 7
ENDMDL
MODEL 5
REMARK VINA RESULT:      -5.7      3.582      6.843
REMARK  7 active torsions:
REMARK  status: ('A' for Active; 'I' for Inactive)
REMARK    1  A    between atoms: O_2  and  C_8 
REMARK    2  A    between atoms: O_3  and  C_14 
REMARK    3  A    between atoms: O_4  and  C_19 
REMARK    4  A    between atoms: O_5  and  C_20 
REMARK    5  A    between atoms: O_6  and  C_21 
REMARK    6  A    between atoms: O_7  and  C_22 
REMARK    7  A    between atoms: C_9  and  C_12 
ROOT
HETATM    1  O   UNK N   1     206.450 208.321 219.743  0.00  0.00    -0.338 OA
HETATM    2  C   UNK N   1     204.251 209.178 220.100  0.00  0.00     0.156 C 
HETATM    3  C   UNK N   1     205.469 209.107 219.163  0.00  0.00     0.191 C 
HETATM    4  C   UNK N   1     203.723 207.753 220.357  0.00  0.00     0.079 C 
HETATM    5  C   UNK N   1     204.845 206.777 220.641  0.00  0.00     0.011 A 
HETATM    6  C   UNK N   1     206.175 207.126 220.315  0.00  0.00     0.081 A 
HETATM    7  C   UNK N   1     204.575 205.515 221.197  0.00  0.00     0.077 A 
HETATM    8  C   UNK N   1     207.217 206.232 220.570  0.00  0.00     0.074 A 
HETATM    9  C   UNK N   1     205.630 204.622 221.443  0.00  0.00     0.073 A 
HETATM   10  C   UNK N   1     206.948 204.977 221.131  0.00  0.00     0.071 A 
ENDROOT
BRANCH   3  11
HETATM   11  C   UNK N   1     206.050 210.469 218.875  0.00  0.00    -0.021 A 
HETATM   12  C   UNK N   1     207.415 210.709 219.079  0.00  0.00     0.049 A 
HETATM   13  C   UNK N   1     207.961 211.973 218.818  0.00  0.00     0.102 A 
HETATM   14  C   UNK N   1     207.133 213.011 218.345  0.00  0.00     0.132 A 
HETATM   15  C   UNK N   1     205.766 212.775 218.143  0.00  0.00     0.102 A 
HETATM   16  C   UNK N   1     205.227 211.510 218.412  0.00  0.00     0.049 A 
BRANCH  13  17
HETATM   17  O   UNK N   1     209.276 212.196 219.021  0.00  0.00    -0.358 OA
HETATM   18  H   UNK N   1     209.777 211.709 219.691  0.00  0.00     0.218 HD
ENDBRANCH  13  17
BRANCH  14  19
HETATM   19  O   UNK N   1     207.638 214.235 218.083  0.00  0.00    -0.356 OA
HETATM   20  H   UNK N   1     208.475 214.359 217.615  0.00  0.00     0.218 HD
ENDBRANCH  14  19
BRANCH  15  21
HETATM   21  O   UNK N   1     204.975 213.770 217.689  0.00  0.00    -0.358 OA
HETATM   22  H   UNK N   1     204.294 213.613 217.018  0.00  0.00     0.218 HD
ENDBRANCH  15  21
ENDBRANCH   3  11
BRANCH   2  23
HETATM   23  O   UNK N   1     203.247 209.981 219.537  0.00  0.00    -0.392 OA
HETATM   24  H   UNK N   1     202.463 209.933 220.144  0.00  0.00     0.210 HD
ENDBRANCH   2  23
BRANCH   7  25
HETATM   25  O   UNK N   1     203.306 205.171 221.503  0.00  0.00    -0.360 OA
HETATM   26  H   UNK N   1     203.059 204.872 222.390  0.00  0.00     0.217 HD
ENDBRANCH   7  25
BRANCH  10  27
HETATM   27  O   UNK N   1     207.948 204.104 221.366  0.00  0.00    -0.361 OA
HETATM   28  H   UNK N   1     207.868 203.405 222.031  0.00  0.00     0.217 HD
ENDBRANCH  10  27
TORSDOF 7
ENDMDL
MODEL 6
REMARK VINA RESULT:      -5.4     22.019     24.165
REMARK  7 active torsions:
REMARK  status: ('A' for Active; 'I' for Inactive)
REMARK    1  A    between atoms: O_2  and  C_8 
REMARK    2  A    between atoms: O_3  and  C_14 
REMARK    3  A    between atoms: O_4  and  C_19 
REMARK    4  A    between atoms: O_5  and  C_20 
REMARK    5  A    between atoms: O_6  and  C_21 
REMARK    6  A    between atoms: O_7  and  C_22 
REMARK    7  A    between atoms: C_9  and  C_12 
ROOT
HETATM    1  O   UNK N   1     220.715 211.219 237.349  0.00  0.00    -0.338 OA
HETATM    2  C   UNK N   1     221.324 213.009 238.805  0.00  0.00     0.156 C 
HETATM    3  C   UNK N   1     220.920 211.530 238.682  0.00  0.00     0.191 C 
HETATM    4  C   UNK N   1     222.607 213.256 237.986  0.00  0.00     0.079 C 
HETATM    5  C   UNK N   1     222.544 212.595 236.626  0.00  0.00     0.011 A 
HETATM    6  C   UNK N   1     221.577 211.596 236.377  0.00  0.00     0.081 A 
HETATM    7  C   UNK N   1     223.457 212.944 235.616  0.00  0.00     0.077 A 
HETATM    8  C   UNK N   1     221.514 210.977 235.126  0.00  0.00     0.074 A 
HETATM    9  C   UNK N   1     223.388 212.311 234.364  0.00  0.00     0.073 A 
HETATM   10  C   UNK N   1     222.420 211.330 234.118  0.00  0.00     0.071 A 
ENDROOT
BRANCH   3  11
HETATM   11  C   UNK N   1     219.661 211.215 239.451  0.00  0.00    -0.021 A 
HETATM   12  C   UNK N   1     219.571 210.034 240.199  0.00  0.00     0.049 A 
HETATM   13  C   UNK N   1     218.403 209.732 240.912  0.00  0.00     0.102 A 
HETATM   14  C   UNK N   1     217.312 210.624 240.881  0.00  0.00     0.132 A 
HETATM   15  C   UNK N   1     217.398 211.805 240.131  0.00  0.00     0.102 A 
HETATM   16  C   UNK N   1     218.567 212.096 239.416  0.00  0.00     0.049 A 
BRANCH  13  17
HETATM   17  O   UNK N   1     218.323 208.590 241.626  0.00  0.00    -0.358 OA
HETATM   18  H   UNK N   1     217.485 208.120 241.741  0.00  0.00     0.218 HD
ENDBRANCH  13  17
BRANCH  14  19
HETATM   19  O   UNK N   1     216.179 210.356 241.564  0.00  0.00    -0.356 OA
HETATM   20  H   UNK N   1     216.177 210.191 242.517  0.00  0.00     0.218 HD
ENDBRANCH  14  19
BRANCH  15  21
HETATM   21  O   UNK N   1     216.352 212.658 240.103  0.00  0.00    -0.358 OA
HETATM   22  H   UNK N   1     216.103 213.184 240.878  0.00  0.00     0.218 HD
ENDBRANCH  15  21
ENDBRANCH   3  11
BRANCH   2  23
HETATM   23  O   UNK N   1     221.526 213.351 240.152  0.00  0.00    -0.392 OA
HETATM   24  H   UNK N   1     220.929 212.770 240.691  0.00  0.00     0.210 HD
ENDBRANCH   2  23
BRANCH   7  25
HETATM   25  O   UNK N   1     224.390 213.892 235.849  0.00  0.00    -0.360 OA
HETATM   26  H   UNK N   1     224.601 214.571 235.192  0.00  0.00     0.217 HD
ENDBRANCH   7  25
BRANCH  10  27
HETATM   27  O   UNK N   1     222.372 210.727 232.913  0.00  0.00    -0.361 OA
HETATM   28  H   UNK N   1     221.721 210.979 232.243  0.00  0.00     0.217 HD
ENDBRANCH  10  27
TORSDOF 7
ENDMDL
MODEL 7
REMARK VINA RESULT:      -5.2     22.659     24.015
REMARK  7 active torsions:
REMARK  status: ('A' for Active; 'I' for Inactive)
REMARK    1  A    between atoms: O_2  and  C_8 
REMARK    2  A    between atoms: O_3  and  C_14 
REMARK    3  A    between atoms: O_4  and  C_19 
REMARK    4  A    between atoms: O_5  and  C_20 
REMARK    5  A    between atoms: O_6  and  C_21 
REMARK    6  A    between atoms: O_7  and  C_22 
REMARK    7  A    between atoms: C_9  and  C_12 
ROOT
HETATM    1  O   UNK N   1     219.977 211.866 238.605  0.00  0.00    -0.338 OA
HETATM    2  C   UNK N   1     221.436 209.978 238.549  0.00  0.00     0.156 C 
HETATM    3  C   UNK N   1     221.314 211.512 238.557  0.00  0.00     0.191 C 
HETATM    4  C   UNK N   1     220.768 209.408 239.816  0.00  0.00     0.079 C 
HETATM    5  C   UNK N   1     219.432 210.063 240.095  0.00  0.00     0.011 A 
HETATM    6  C   UNK N   1     219.103 211.280 239.456  0.00  0.00     0.081 A 
HETATM    7  C   UNK N   1     218.528 209.491 241.005  0.00  0.00     0.077 A 
HETATM    8  C   UNK N   1     217.874 211.894 239.708  0.00  0.00     0.074 A 
HETATM    9  C   UNK N   1     217.298 210.121 241.256  0.00  0.00     0.073 A 
HETATM   10  C   UNK N   1     216.970 211.319 240.611  0.00  0.00     0.071 A 
ENDROOT
BRANCH   3  11
HETATM   11  C   UNK N   1     221.937 212.141 237.336  0.00  0.00    -0.021 A 
HETATM   12  C   UNK N   1     221.836 211.509 236.090  0.00  0.00     0.049 A 
HETATM   13  C   UNK N   1     222.416 212.086 234.952  0.00  0.00     0.102 A 
HETATM   14  C   UNK N   1     223.104 213.311 235.059  0.00  0.00     0.132 A 
HETATM   15  C   UNK N   1     223.209 213.945 236.305  0.00  0.00     0.102 A 
HETATM   16  C   UNK N   1     222.631 213.359 237.439  0.00  0.00     0.049 A 
BRANCH  13  17
HETATM   17  O   UNK N   1     222.317 211.468 233.756  0.00  0.00    -0.358 OA
HETATM   18  H   UNK N   1     222.521 211.926 232.928  0.00  0.00     0.218 HD
ENDBRANCH  13  17
BRANCH  14  19
HETATM   19  O   UNK N   1     223.666 213.887 233.975  0.00  0.00    -0.356 OA
HETATM   20  H   UNK N   1     224.442 214.460 234.039  0.00  0.00     0.218 HD
ENDBRANCH  14  19
BRANCH  15  21
HETATM   21  O   UNK N   1     223.868 215.118 236.406  0.00  0.00    -0.358 OA
HETATM   22  H   UNK N   1     224.442 215.317 237.161  0.00  0.00     0.218 HD
ENDBRANCH  15  21
ENDBRANCH   3  11
BRANCH   2  23
HETATM   23  O   UNK N   1     222.785 209.594 238.488  0.00  0.00    -0.392 OA
HETATM   24  H   UNK N   1     222.831 208.788 237.910  0.00  0.00     0.210 HD
ENDBRANCH   2  23
BRANCH   7  25
HETATM   25  O   UNK N   1     218.839 208.333 241.626  0.00  0.00    -0.360 OA
HETATM   26  H   UNK N   1     219.566 207.771 241.322  0.00  0.00     0.217 HD
ENDBRANCH   7  25
BRANCH  10  27
HETATM   27  O   UNK N   1     215.790 211.916 240.870  0.00  0.00    -0.361 OA
HETATM   28  H   UNK N   1     215.020 211.411 241.172  0.00  0.00     0.217 HD
ENDBRANCH  10  27
TORSDOF 7
ENDMDL
MODEL 8
REMARK VINA RESULT:      -5.1     22.700     23.965
REMARK  7 active torsions:
REMARK  status: ('A' for Active; 'I' for Inactive)
REMARK    1  A    between atoms: O_2  and  C_8 
REMARK    2  A    between atoms: O_3  and  C_14 
REMARK    3  A    between atoms: O_4  and  C_19 
REMARK    4  A    between atoms: O_5  and  C_20 
REMARK    5  A    between atoms: O_6  and  C_21 
REMARK    6  A    between atoms: O_7  and  C_22 
REMARK    7  A    between atoms: C_9  and  C_12 
ROOT
HETATM    1  O   UNK N   1     221.012 211.904 237.397  0.00  0.00    -0.338 OA
HETATM    2  C   UNK N   1     222.681 210.199 237.444  0.00  0.00     0.156 C 
HETATM    3  C   UNK N   1     222.381 211.705 237.352  0.00  0.00     0.191 C 
HETATM    4  C   UNK N   1     222.094 209.642 238.756  0.00  0.00     0.079 C 
HETATM    5  C   UNK N   1     220.693 210.155 239.011  0.00  0.00     0.011 A 
HETATM    6  C   UNK N   1     220.219 211.279 238.298  0.00  0.00     0.081 A 
HETATM    7  C   UNK N   1     219.869 209.545 239.971  0.00  0.00     0.077 A 
HETATM    8  C   UNK N   1     218.929 211.763 238.528  0.00  0.00     0.074 A 
HETATM    9  C   UNK N   1     218.576 210.043 240.199  0.00  0.00     0.073 A 
HETATM   10  C   UNK N   1     218.105 211.149 239.480  0.00  0.00     0.071 A 
ENDROOT
BRANCH   3  11
HETATM   11  C   UNK N   1     222.917 212.319 236.083  0.00  0.00    -0.021 A 
HETATM   12  C   UNK N   1     223.028 211.545 234.920  0.00  0.00     0.049 A 
HETATM   13  C   UNK N   1     223.529 212.107 233.738  0.00  0.00     0.102 A 
HETATM   14  C   UNK N   1     223.923 213.460 233.716  0.00  0.00     0.132 A 
HETATM   15  C   UNK N   1     223.816 214.236 234.879  0.00  0.00     0.102 A 
HETATM   16  C   UNK N   1     223.319 213.665 236.058  0.00  0.00     0.049 A 
BRANCH  13  17
HETATM   17  O   UNK N   1     223.637 211.353 232.624  0.00  0.00    -0.358 OA
HETATM   18  H   UNK N   1     224.179 210.551 232.604  0.00  0.00     0.218 HD
ENDBRANCH  13  17
BRANCH  14  19
HETATM   19  O   UNK N   1     224.404 214.023 232.587  0.00  0.00    -0.356 OA
HETATM   20  H   UNK N   1     224.040 213.822 231.715  0.00  0.00     0.218 HD
ENDBRANCH  14  19
BRANCH  15  21
HETATM   21  O   UNK N   1     224.192 215.532 234.856  0.00  0.00    -0.358 OA
HETATM   22  H   UNK N   1     223.906 216.133 234.151  0.00  0.00     0.218 HD
ENDBRANCH  15  21
ENDBRANCH   3  11
BRANCH   2  23
HETATM   23  O   UNK N   1     224.065 209.971 237.388  0.00  0.00    -0.392 OA
HETATM   24  H   UNK N   1     224.428 210.171 238.290  0.00  0.00     0.210 HD
ENDBRANCH   2  23
BRANCH   7  25
HETATM   25  O   UNK N   1     220.317 208.476 240.663  0.00  0.00    -0.360 OA
HETATM   26  H   UNK N   1     221.033 207.916 240.329  0.00  0.00     0.217 HD
ENDBRANCH   7  25
BRANCH  10  27
HETATM   27  O   UNK N   1     216.865 211.620 239.717  0.00  0.00    -0.361 OA
HETATM   28  H   UNK N   1     216.075 211.092 239.529  0.00  0.00     0.217 HD
ENDBRANCH  10  27
TORSDOF 7
ENDMDL
MODEL 9
REMARK VINA RESULT:      -5.1     22.693     24.044
REMARK  7 active torsions:
REMARK  status: ('A' for Active; 'I' for Inactive)
REMARK    1  A    between atoms: O_2  and  C_8 
REMARK    2  A    between atoms: O_3  and  C_14 
REMARK    3  A    between atoms: O_4  and  C_19 
REMARK    4  A    between atoms: O_5  and  C_20 
REMARK    5  A    between atoms: O_6  and  C_21 
REMARK    6  A    between atoms: O_7  and  C_22 
REMARK    7  A    between atoms: C_9  and  C_12 
ROOT
HETATM    1  O   UNK N   1     219.990 211.905 238.592  0.00  0.00    -0.338 OA
HETATM    2  C   UNK N   1     221.432 210.004 238.542  0.00  0.00     0.156 C 
HETATM    3  C   UNK N   1     221.324 211.538 238.545  0.00  0.00     0.191 C 
HETATM    4  C   UNK N   1     220.759 209.444 239.811  0.00  0.00     0.079 C 
HETATM    5  C   UNK N   1     219.430 210.113 240.088  0.00  0.00     0.011 A 
HETATM    6  C   UNK N   1     219.111 211.330 239.445  0.00  0.00     0.081 A 
HETATM    7  C   UNK N   1     218.520 209.552 241.001  0.00  0.00     0.077 A 
HETATM    8  C   UNK N   1     217.888 211.956 239.696  0.00  0.00     0.074 A 
HETATM    9  C   UNK N   1     217.297 210.194 241.250  0.00  0.00     0.073 A 
HETATM   10  C   UNK N   1     216.979 211.393 240.601  0.00  0.00     0.071 A 
ENDROOT
BRANCH   3  11
HETATM   11  C   UNK N   1     221.952 212.158 237.322  0.00  0.00    -0.021 A 
HETATM   12  C   UNK N   1     222.598 213.398 237.414  0.00  0.00     0.049 A 
HETATM   13  C   UNK N   1     223.180 213.982 236.282  0.00  0.00     0.102 A 
HETATM   14  C   UNK N   1     223.119 213.318 235.040  0.00  0.00     0.132 A 
HETATM   15  C   UNK N   1     222.471 212.079 234.943  0.00  0.00     0.102 A 
HETATM   16  C   UNK N   1     221.887 211.504 236.079  0.00  0.00     0.049 A 
BRANCH  13  17
HETATM   17  O   UNK N   1     223.796 215.179 236.380  0.00  0.00    -0.358 OA
HETATM   18  H   UNK N   1     223.295 216.006 236.434  0.00  0.00     0.218 HD
ENDBRANCH  13  17
BRANCH  14  19
HETATM   19  O   UNK N   1     223.677 213.860 233.937  0.00  0.00    -0.356 OA
HETATM   20  H   UNK N   1     224.383 213.419 233.445  0.00  0.00     0.218 HD
ENDBRANCH  14  19
BRANCH  15  21
HETATM   21  O   UNK N   1     222.415 211.444 233.754  0.00  0.00    -0.358 OA
HETATM   22  H   UNK N   1     223.086 210.797 233.489  0.00  0.00     0.218 HD
ENDBRANCH  15  21
ENDBRANCH   3  11
BRANCH   2  23
HETATM   23  O   UNK N   1     222.777 209.608 238.482  0.00  0.00    -0.392 OA
HETATM   24  H   UNK N   1     223.284 210.365 238.088  0.00  0.00     0.210 HD
ENDBRANCH   2  23
BRANCH   7  25
HETATM   25  O   UNK N   1     218.821 208.394 241.626  0.00  0.00    -0.360 OA
HETATM   26  H   UNK N   1     218.298 208.066 242.372  0.00  0.00     0.217 HD
ENDBRANCH   7  25
BRANCH  10  27
HETATM   27  O   UNK N   1     215.804 212.001 240.858  0.00  0.00    -0.361 OA
HETATM   28  H   UNK N   1     215.022 211.501 241.133  0.00  0.00     0.217 HD
ENDBRANCH  10  27
TORSDOF 7
ENDMDL
