MODEL 1
REMARK VINA RESULT:      -6.6      0.000      0.000
REMARK  7 active torsions:
REMARK  status: ('A' for Active; 'I' for Inactive)
REMARK    1  A    between atoms: O_2  and  C_8 
REMARK    2  A    between atoms: O_3  and  C_14 
REMARK    3  A    between atoms: O_4  and  C_19 
REMARK    4  A    between atoms: O_5  and  C_20 
REMARK    5  A    between atoms: O_6  and  C_21 
REMARK    6  A    between atoms: O_7  and  C_22 
REMARK    7  A    between atoms: C_9  and  C_12 
ROOT
HETATM    1  O   UNK N   1     206.537 206.446 220.351  0.00  0.00    -0.338 OA
HETATM    2  C   UNK N   1     204.180 206.504 220.703  0.00  0.00     0.156 C 
HETATM    3  C   UNK N   1     205.342 206.782 219.737  0.00  0.00     0.191 C 
HETATM    4  C   UNK N   1     204.178 205.000 221.041  0.00  0.00     0.079 C 
HETATM    5  C   UNK N   1     205.571 204.491 221.356  0.00  0.00     0.011 A 
HETATM    6  C   UNK N   1     206.697 205.271 221.003  0.00  0.00     0.081 A 
HETATM    7  C   UNK N   1     205.761 203.240 221.968  0.00  0.00     0.077 A 
HETATM    8  C   UNK N   1     207.983 204.824 221.303  0.00  0.00     0.074 A 
HETATM    9  C   UNK N   1     207.061 202.794 222.252  0.00  0.00     0.073 A 
HETATM   10  C   UNK N   1     208.170 203.585 221.928  0.00  0.00     0.071 A 
ENDROOT
BRANCH   3  11
HETATM   11  C   UNK N   1     205.364 208.218 219.292  0.00  0.00    -0.021 A 
HETATM   12  C   UNK N   1     204.446 208.656 218.332  0.00  0.00     0.049 A 
HETATM   13  C   UNK N   1     204.438 209.991 217.915  0.00  0.00     0.102 A 
HETATM   14  C   UNK N   1     205.358 210.902 218.459  0.00  0.00     0.132 A 
HETATM   15  C   UNK N   1     206.285 210.465 219.426  0.00  0.00     0.102 A 
HETATM   16  C   UNK N   1     206.281 209.129 219.840  0.00  0.00     0.049 A 
BRANCH  13  17
HETATM   17  O   UNK N   1     203.544 210.407 216.994  0.00  0.00    -0.358 OA
HETATM   18  H   UNK N   1     203.535 211.321 216.675  0.00  0.00     0.218 HD
ENDBRANCH  13  17
BRANCH  14  19
HETATM   19  O   UNK N   1     205.341 212.187 218.047  0.00  0.00    -0.356 OA
HETATM   20  H   UNK N   1     204.550 212.740 218.118  0.00  0.00     0.218 HD
ENDBRANCH  14  19
BRANCH  15  21
HETATM   21  O   UNK N   1     207.173 211.334 219.955  0.00  0.00    -0.358 OA
HETATM   22  H   UNK N   1     206.893 212.060 220.532  0.00  0.00     0.218 HD
ENDBRANCH  15  21
ENDBRANCH   3  11
BRANCH   2  23
HETATM   23  O   UNK N   1     204.353 207.241 221.888  0.00  0.00    -0.392 OA
HETATM   24  H   UNK N   1     205.161 206.881 222.337  0.00  0.00     0.210 HD
ENDBRANCH   2  23
BRANCH   7  25
HETATM   25  O   UNK N   1     204.694 202.477 222.286  0.00  0.00    -0.360 OA
HETATM   26  H   UNK N   1     203.933 202.839 222.762  0.00  0.00     0.217 HD
ENDBRANCH   7  25
BRANCH  10  27
HETATM   27  O   UNK N   1     209.411 203.142 222.209  0.00  0.00    -0.361 OA
HETATM   28  H   UNK N   1     210.020 203.656 222.757  0.00  0.00     0.217 HD
ENDBRANCH  10  27
TORSDOF 7
ENDMDL
MODEL 2
REMARK VINA RESULT:      -6.4      2.582      6.736
REMARK  7 active torsions:
REMARK  status: ('A' for Active; 'I' for Inactive)
REMARK    1  A    between atoms: O_2  and  C_8 
REMARK    2  A    between atoms: O_3  and  C_14 
REMARK    3  A    between atoms: O_4  and  C_19 
REMARK    4  A    between atoms: O_5  and  C_20 
REMARK    5  A    between atoms: O_6  and  C_21 
REMARK    6  A    between atoms: O_7  and  C_22 
REMARK    7  A    between atoms: C_9  and  C_12 
ROOT
HETATM    1  O   UNK N   1     204.356 207.363 221.913  0.00  0.00    -0.338 OA
HETATM    2  C   UNK N   1     205.279 208.088 219.838  0.00  0.00     0.156 C 
HETATM    3  C   UNK N   1     204.906 206.895 220.731  0.00  0.00     0.191 C 
HETATM    4  C   UNK N   1     203.996 208.883 219.527  0.00  0.00     0.079 C 
HETATM    5  C   UNK N   1     203.149 209.093 220.767  0.00  0.00     0.011 A 
HETATM    6  C   UNK N   1     203.396 208.316 221.923  0.00  0.00     0.081 A 
HETATM    7  C   UNK N   1     202.100 210.028 220.774  0.00  0.00     0.077 A 
HETATM    8  C   UNK N   1     202.637 208.512 223.076  0.00  0.00     0.074 A 
HETATM    9  C   UNK N   1     201.333 210.206 221.936  0.00  0.00     0.073 A 
HETATM   10  C   UNK N   1     201.603 209.456 223.087  0.00  0.00     0.071 A 
ENDROOT
BRANCH   3  11
HETATM   11  C   UNK N   1     206.094 206.018 221.014  0.00  0.00    -0.021 A 
HETATM   12  C   UNK N   1     205.898 204.748 221.565  0.00  0.00     0.049 A 
HETATM   13  C   UNK N   1     206.989 203.910 221.821  0.00  0.00     0.102 A 
HETATM   14  C   UNK N   1     208.291 204.342 221.527  0.00  0.00     0.132 A 
HETATM   15  C   UNK N   1     208.493 205.621 220.971  0.00  0.00     0.102 A 
HETATM   16  C   UNK N   1     207.396 206.450 220.714  0.00  0.00     0.049 A 
BRANCH  13  17
HETATM   17  O   UNK N   1     206.790 202.683 222.347  0.00  0.00    -0.358 OA
HETATM   18  H   UNK N   1     206.371 202.566 223.213  0.00  0.00     0.218 HD
ENDBRANCH  13  17
BRANCH  14  19
HETATM   19  O   UNK N   1     209.334 203.525 221.780  0.00  0.00    -0.356 OA
HETATM   20  H   UNK N   1     209.515 203.180 222.666  0.00  0.00     0.218 HD
ENDBRANCH  14  19
BRANCH  15  21
HETATM   21  O   UNK N   1     209.743 206.046 220.684  0.00  0.00    -0.358 OA
HETATM   22  H   UNK N   1     209.953 206.476 219.842  0.00  0.00     0.218 HD
ENDBRANCH  15  21
ENDBRANCH   3  11
BRANCH   2  23
HETATM   23  O   UNK N   1     206.187 208.925 220.509  0.00  0.00    -0.392 OA
HETATM   24  H   UNK N   1     207.063 208.828 220.052  0.00  0.00     0.210 HD
ENDBRANCH   2  23
BRANCH   7  25
HETATM   25  O   UNK N   1     201.839 210.756 219.668  0.00  0.00    -0.360 OA
HETATM   26  H   UNK N   1     201.754 211.720 219.702  0.00  0.00     0.217 HD
ENDBRANCH   7  25
BRANCH  10  27
HETATM   27  O   UNK N   1     200.857 209.639 224.195  0.00  0.00    -0.361 OA
HETATM   28  H   UNK N   1     199.970 210.023 224.149  0.00  0.00     0.217 HD
ENDBRANCH  10  27
TORSDOF 7
ENDMDL
MODEL 3
REMARK VINA RESULT:      -6.2      2.397      6.872
REMARK  7 active torsions:
REMARK  status: ('A' for Active; 'I' for Inactive)
REMARK    1  A    between atoms: O_2  and  C_8 
REMARK    2  A    between atoms: O_3  and  C_14 
REMARK    3  A    between atoms: O_4  and  C_19 
REMARK    4  A    between atoms: O_5  and  C_20 
REMARK    5  A    between atoms: O_6  and  C_21 
REMARK    6  A    between atoms: O_7  and  C_22 
REMARK    7  A    between atoms: C_9  and  C_12 
ROOT
HETATM    1  O   UNK N   1     203.937 207.061 221.037  0.00  0.00    -0.338 OA
HETATM    2  C   UNK N   1     205.515 208.463 219.928  0.00  0.00     0.156 C 
HETATM    3  C   UNK N   1     204.991 207.034 220.139  0.00  0.00     0.191 C 
HETATM    4  C   UNK N   1     204.372 209.320 219.351  0.00  0.00     0.079 C 
HETATM    5  C   UNK N   1     203.066 209.086 220.085  0.00  0.00     0.011 A 
HETATM    6  C   UNK N   1     202.927 207.954 220.921  0.00  0.00     0.081 A 
HETATM    7  C   UNK N   1     201.980 209.963 219.922  0.00  0.00     0.077 A 
HETATM    8  C   UNK N   1     201.739 207.737 221.617  0.00  0.00     0.074 A 
HETATM    9  C   UNK N   1     200.783 209.727 220.616  0.00  0.00     0.073 A 
HETATM   10  C   UNK N   1     200.663 208.621 221.467  0.00  0.00     0.071 A 
ENDROOT
BRANCH   3  11
HETATM   11  C   UNK N   1     206.073 206.110 220.625  0.00  0.00    -0.021 A 
HETATM   12  C   UNK N   1     207.414 206.476 220.467  0.00  0.00     0.049 A 
HETATM   13  C   UNK N   1     208.436 205.639 220.927  0.00  0.00     0.102 A 
HETATM   14  C   UNK N   1     208.121 204.420 221.548  0.00  0.00     0.132 A 
HETATM   15  C   UNK N   1     206.771 204.048 221.709  0.00  0.00     0.102 A 
HETATM   16  C   UNK N   1     205.756 204.894 221.251  0.00  0.00     0.049 A 
BRANCH  13  17
HETATM   17  O   UNK N   1     209.727 206.003 220.776  0.00  0.00    -0.358 OA
HETATM   18  H   UNK N   1     210.228 205.774 219.979  0.00  0.00     0.218 HD
ENDBRANCH  13  17
BRANCH  14  19
HETATM   19  O   UNK N   1     209.116 203.621 221.985  0.00  0.00    -0.356 OA
HETATM   20  H   UNK N   1     208.956 202.883 222.590  0.00  0.00     0.218 HD
ENDBRANCH  14  19
BRANCH  15  21
HETATM   21  O   UNK N   1     206.458 202.877 222.306  0.00  0.00    -0.358 OA
HETATM   22  H   UNK N   1     206.642 202.026 221.882  0.00  0.00     0.218 HD
ENDBRANCH  15  21
ENDBRANCH   3  11
BRANCH   2  23
HETATM   23  O   UNK N   1     205.925 209.010 221.157  0.00  0.00    -0.392 OA
HETATM   24  H   UNK N   1     205.928 208.269 221.818  0.00  0.00     0.210 HD
ENDBRANCH   2  23
BRANCH   7  25
HETATM   25  O   UNK N   1     202.094 211.033 219.107  0.00  0.00    -0.360 OA
HETATM   26  H   UNK N   1     202.382 210.943 218.187  0.00  0.00     0.217 HD
ENDBRANCH   7  25
BRANCH  10  27
HETATM   27  O   UNK N   1     199.507 208.408 222.126  0.00  0.00    -0.361 OA
HETATM   28  H   UNK N   1     198.710 208.921 221.929  0.00  0.00     0.217 HD
ENDBRANCH  10  27
TORSDOF 7
ENDMDL
MODEL 4
REMARK VINA RESULT:      -6.0     22.357     23.579
REMARK  7 active torsions:
REMARK  status: ('A' for Active; 'I' for Inactive)
REMARK    1  A    between atoms: O_2  and  C_8 
REMARK    2  A    between atoms: O_3  and  C_14 
REMARK    3  A    between atoms: O_4  and  C_19 
REMARK    4  A    between atoms: O_5  and  C_20 
REMARK    5  A    between atoms: O_6  and  C_21 
REMARK    6  A    between atoms: O_7  and  C_22 
REMARK    7  A    between atoms: C_9  and  C_12 
ROOT
HETATM    1  O   UNK N   1     219.825 211.470 238.609  0.00  0.00    -0.338 OA
HETATM    2  C   UNK N   1     219.499 209.174 238.056  0.00  0.00     0.156 C 
HETATM    3  C   UNK N   1     220.508 210.311 238.281  0.00  0.00     0.191 C 
HETATM    4  C   UNK N   1     218.715 208.954 239.364  0.00  0.00     0.079 C 
HETATM    5  C   UNK N   1     218.264 210.265 239.978  0.00  0.00     0.011 A 
HETATM    6  C   UNK N   1     218.844 211.478 239.541  0.00  0.00     0.081 A 
HETATM    7  C   UNK N   1     217.298 210.289 240.999  0.00  0.00     0.077 A 
HETATM    8  C   UNK N   1     218.426 212.692 240.083  0.00  0.00     0.074 A 
HETATM    9  C   UNK N   1     216.894 211.516 241.548  0.00  0.00     0.073 A 
HETATM   10  C   UNK N   1     217.450 212.716 241.088  0.00  0.00     0.071 A 
ENDROOT
BRANCH   3  11
HETATM   11  C   UNK N   1     221.374 210.534 237.072  0.00  0.00    -0.021 A 
HETATM   12  C   UNK N   1     221.325 211.763 236.407  0.00  0.00     0.049 A 
HETATM   13  C   UNK N   1     222.134 211.997 235.289  0.00  0.00     0.102 A 
HETATM   14  C   UNK N   1     223.000 210.993 234.826  0.00  0.00     0.132 A 
HETATM   15  C   UNK N   1     223.052 209.753 235.493  0.00  0.00     0.102 A 
HETATM   16  C   UNK N   1     222.243 209.531 236.613  0.00  0.00     0.049 A 
BRANCH  13  17
HETATM   17  O   UNK N   1     222.086 213.188 234.657  0.00  0.00    -0.358 OA
HETATM   18  H   UNK N   1     222.597 213.948 234.972  0.00  0.00     0.218 HD
ENDBRANCH  13  17
BRANCH  14  19
HETATM   19  O   UNK N   1     223.773 211.231 233.746  0.00  0.00    -0.356 OA
HETATM   20  H   UNK N   1     223.649 212.010 233.186  0.00  0.00     0.218 HD
ENDBRANCH  14  19
BRANCH  15  21
HETATM   21  O   UNK N   1     223.881 208.782 235.055  0.00  0.00    -0.358 OA
HETATM   22  H   UNK N   1     223.597 208.130 234.397  0.00  0.00     0.218 HD
ENDBRANCH  15  21
ENDBRANCH   3  11
BRANCH   2  23
HETATM   23  O   UNK N   1     218.599 209.525 237.034  0.00  0.00    -0.392 OA
HETATM   24  H   UNK N   1     217.692 209.274 237.349  0.00  0.00     0.210 HD
ENDBRANCH   2  23
BRANCH   7  25
HETATM   25  O   UNK N   1     216.756 209.134 241.441  0.00  0.00    -0.360 OA
HETATM   26  H   UNK N   1     217.238 208.540 242.034  0.00  0.00     0.217 HD
ENDBRANCH   7  25
BRANCH  10  27
HETATM   27  O   UNK N   1     217.052 213.886 241.626  0.00  0.00    -0.361 OA
HETATM   28  H   UNK N   1     216.117 214.128 241.675  0.00  0.00     0.217 HD
ENDBRANCH  10  27
TORSDOF 7
ENDMDL
MODEL 5
REMARK VINA RESULT:      -5.8     22.850     23.729
REMARK  7 active torsions:
REMARK  status: ('A' for Active; 'I' for Inactive)
REMARK    1  A    between atoms: O_2  and  C_8 
REMARK    2  A    between atoms: O_3  and  C_14 
REMARK    3  A    between atoms: O_4  and  C_19 
REMARK    4  A    between atoms: O_5  and  C_20 
REMARK    5  A    between atoms: O_6  and  C_21 
REMARK    6  A    between atoms: O_7  and  C_22 
REMARK    7  A    between atoms: C_9  and  C_12 
ROOT
HETATM    1  O   UNK N   1     220.767 211.550 236.970  0.00  0.00    -0.338 OA
HETATM    2  C   UNK N   1     221.211 209.275 237.528  0.00  0.00     0.156 C 
HETATM    3  C   UNK N   1     220.144 210.340 237.227  0.00  0.00     0.191 C 
HETATM    4  C   UNK N   1     222.119 209.132 236.292  0.00  0.00     0.079 C 
HETATM    5  C   UNK N   1     222.524 210.481 235.731  0.00  0.00     0.011 A 
HETATM    6  C   UNK N   1     221.821 211.643 236.127  0.00  0.00     0.081 A 
HETATM    7  C   UNK N   1     223.571 210.590 234.799  0.00  0.00     0.077 A 
HETATM    8  C   UNK N   1     222.195 212.892 235.635  0.00  0.00     0.074 A 
HETATM    9  C   UNK N   1     223.929 211.852 234.299  0.00  0.00     0.073 A 
HETATM   10  C   UNK N   1     223.249 213.002 234.719  0.00  0.00     0.071 A 
ENDROOT
BRANCH   3  11
HETATM   11  C   UNK N   1     219.164 210.481 238.358  0.00  0.00    -0.021 A 
HETATM   12  C   UNK N   1     218.853 209.366 239.143  0.00  0.00     0.049 A 
HETATM   13  C   UNK N   1     217.955 209.479 240.211  0.00  0.00     0.102 A 
HETATM   14  C   UNK N   1     217.357 210.716 240.497  0.00  0.00     0.132 A 
HETATM   15  C   UNK N   1     217.667 211.842 239.708  0.00  0.00     0.102 A 
HETATM   16  C   UNK N   1     218.570 211.720 238.646  0.00  0.00     0.049 A 
BRANCH  13  17
HETATM   17  O   UNK N   1     217.667 208.401 240.968  0.00  0.00    -0.358 OA
HETATM   18  H   UNK N   1     217.685 208.442 241.936  0.00  0.00     0.218 HD
ENDBRANCH  13  17
BRANCH  14  19
HETATM   19  O   UNK N   1     216.492 210.811 241.528  0.00  0.00    -0.356 OA
HETATM   20  H   UNK N   1     216.618 210.322 242.353  0.00  0.00     0.218 HD
ENDBRANCH  14  19
BRANCH  15  21
HETATM   21  O   UNK N   1     217.096 213.036 239.976  0.00  0.00    -0.358 OA
HETATM   22  H   UNK N   1     216.136 213.158 239.948  0.00  0.00     0.218 HD
ENDBRANCH  15  21
ENDBRANCH   3  11
BRANCH   2  23
HETATM   23  O   UNK N   1     221.991 209.674 238.628  0.00  0.00    -0.392 OA
HETATM   24  H   UNK N   1     222.857 209.998 238.266  0.00  0.00     0.210 HD
ENDBRANCH   2  23
BRANCH   7  25
HETATM   25  O   UNK N   1     224.231 209.485 234.396  0.00  0.00    -0.360 OA
HETATM   26  H   UNK N   1     224.809 209.493 233.619  0.00  0.00     0.217 HD
ENDBRANCH   7  25
BRANCH  10  27
HETATM   27  O   UNK N   1     223.606 214.205 234.228  0.00  0.00    -0.361 OA
HETATM   28  H   UNK N   1     224.435 214.631 234.487  0.00  0.00     0.217 HD
ENDBRANCH  10  27
TORSDOF 7
ENDMDL
MODEL 6
REMARK VINA RESULT:      -5.8     23.040     23.986
REMARK  7 active torsions:
REMARK  status: ('A' for Active; 'I' for Inactive)
REMARK    1  A    between atoms: O_2  and  C_8 
REMARK    2  A    between atoms: O_3  and  C_14 
REMARK    3  A    between atoms: O_4  and  C_19 
REMARK    4  A    between atoms: O_5  and  C_20 
REMARK    5  A    between atoms: O_6  and  C_21 
REMARK    6  A    between atoms: O_7  and  C_22 
REMARK    7  A    between atoms: C_9  and  C_12 
ROOT
HETATM    1  O   UNK N   1     220.932 212.283 236.991  0.00  0.00    -0.338 OA
HETATM    2  C   UNK N   1     220.992 210.253 238.239  0.00  0.00     0.156 C 
HETATM    3  C   UNK N   1     220.122 211.373 237.650  0.00  0.00     0.191 C 
HETATM    4  C   UNK N   1     221.723 209.544 237.082  0.00  0.00     0.079 C 
HETATM    5  C   UNK N   1     222.315 210.534 236.099  0.00  0.00     0.011 A 
HETATM    6  C   UNK N   1     221.891 211.883 236.123  0.00  0.00     0.081 A 
HETATM    7  C   UNK N   1     223.260 210.124 235.143  0.00  0.00     0.077 A 
HETATM    8  C   UNK N   1     222.441 212.809 235.238  0.00  0.00     0.074 A 
HETATM    9  C   UNK N   1     223.796 211.062 234.247  0.00  0.00     0.073 A 
HETATM   10  C   UNK N   1     223.395 212.402 234.297  0.00  0.00     0.071 A 
ENDROOT
BRANCH   3  11
HETATM   11  C   UNK N   1     219.309 212.063 238.711  0.00  0.00    -0.021 A 
HETATM   12  C   UNK N   1     219.852 213.158 239.391  0.00  0.00     0.049 A 
HETATM   13  C   UNK N   1     219.108 213.824 240.371  0.00  0.00     0.102 A 
HETATM   14  C   UNK N   1     217.807 213.394 240.679  0.00  0.00     0.132 A 
HETATM   15  C   UNK N   1     217.257 212.291 239.996  0.00  0.00     0.102 A 
HETATM   16  C   UNK N   1     218.007 211.634 239.014  0.00  0.00     0.049 A 
BRANCH  13  17
HETATM   17  O   UNK N   1     219.637 214.884 241.017  0.00  0.00    -0.358 OA
HETATM   18  H   UNK N   1     220.513 214.840 241.427  0.00  0.00     0.218 HD
ENDBRANCH  13  17
BRANCH  14  19
HETATM   19  O   UNK N   1     217.101 214.044 241.626  0.00  0.00    -0.356 OA
HETATM   20  H   UNK N   1     217.345 214.013 242.562  0.00  0.00     0.218 HD
ENDBRANCH  14  19
BRANCH  15  21
HETATM   21  O   UNK N   1     216.007 211.869 240.285  0.00  0.00    -0.358 OA
HETATM   22  H   UNK N   1     215.837 211.235 240.997  0.00  0.00     0.218 HD
ENDBRANCH  15  21
ENDBRANCH   3  11
BRANCH   2  23
HETATM   23  O   UNK N   1     221.945 210.797 239.119  0.00  0.00    -0.392 OA
HETATM   24  H   UNK N   1     222.770 210.955 238.590  0.00  0.00     0.210 HD
ENDBRANCH   2  23
BRANCH   7  25
HETATM   25  O   UNK N   1     223.653 208.834 235.095  0.00  0.00    -0.360 OA
HETATM   26  H   UNK N   1     223.086 208.117 235.411  0.00  0.00     0.217 HD
ENDBRANCH   7  25
BRANCH  10  27
HETATM   27  O   UNK N   1     223.920 213.290 233.429  0.00  0.00    -0.361 OA
HETATM   28  H   UNK N   1     224.408 214.067 233.734  0.00  0.00     0.217 HD
ENDBRANCH  10  27
TORSDOF 7
ENDMDL
MODEL 7
REMARK VINA RESULT:      -5.8     22.746     23.664
REMARK  7 active torsions:
REMARK  status: ('A' for Active; 'I' for Inactive)
REMARK    1  A    between atoms: O_2  and  C_8 
REMARK    2  A    between atoms: O_3  and  C_14 
REMARK    3  A    between atoms: O_4  and  C_19 
REMARK    4  A    between atoms: O_5  and  C_20 
REMARK    5  A    between atoms: O_6  and  C_21 
REMARK    6  A    between atoms: O_7  and  C_22 
REMARK    7  A    between atoms: C_9  and  C_12 
ROOT
HETATM    1  O   UNK N   1     221.071 211.677 236.644  0.00  0.00    -0.338 OA
HETATM    2  C   UNK N   1     221.513 209.348 236.901  0.00  0.00     0.156 C 
HETATM    3  C   UNK N   1     220.447 210.447 236.771  0.00  0.00     0.191 C 
HETATM    4  C   UNK N   1     222.377 209.354 235.625  0.00  0.00     0.079 C 
HETATM    5  C   UNK N   1     222.774 210.761 235.221  0.00  0.00     0.011 A 
HETATM    6  C   UNK N   1     222.097 211.868 235.781  0.00  0.00     0.081 A 
HETATM    7  C   UNK N   1     223.789 210.979 234.273  0.00  0.00     0.077 A 
HETATM    8  C   UNK N   1     222.465 213.167 235.434  0.00  0.00     0.074 A 
HETATM    9  C   UNK N   1     224.141 212.291 233.919  0.00  0.00     0.073 A 
HETATM   10  C   UNK N   1     223.487 213.383 234.502  0.00  0.00     0.071 A 
ENDROOT
BRANCH   3  11
HETATM   11  C   UNK N   1     219.507 210.453 237.945  0.00  0.00    -0.021 A 
HETATM   12  C   UNK N   1     218.857 211.638 238.302  0.00  0.00     0.049 A 
HETATM   13  C   UNK N   1     217.967 211.662 239.382  0.00  0.00     0.102 A 
HETATM   14  C   UNK N   1     217.723 210.491 240.116  0.00  0.00     0.132 A 
HETATM   15  C   UNK N   1     218.376 209.294 239.760  0.00  0.00     0.102 A 
HETATM   16  C   UNK N   1     219.260 209.280 238.676  0.00  0.00     0.049 A 
BRANCH  13  17
HETATM   17  O   UNK N   1     217.339 212.808 239.715  0.00  0.00    -0.358 OA
HETATM   18  H   UNK N   1     216.489 213.054 239.319  0.00  0.00     0.218 HD
ENDBRANCH  13  17
BRANCH  14  19
HETATM   19  O   UNK N   1     216.864 210.527 241.156  0.00  0.00    -0.356 OA
HETATM   20  H   UNK N   1     216.592 211.358 241.571  0.00  0.00     0.218 HD
ENDBRANCH  14  19
BRANCH  15  21
HETATM   21  O   UNK N   1     218.147 208.162 240.461  0.00  0.00    -0.358 OA
HETATM   22  H   UNK N   1     217.276 207.738 240.471  0.00  0.00     0.218 HD
ENDBRANCH  15  21
ENDBRANCH   3  11
BRANCH   2  23
HETATM   23  O   UNK N   1     222.335 209.605 238.013  0.00  0.00    -0.392 OA
HETATM   24  H   UNK N   1     222.773 208.747 238.253  0.00  0.00     0.210 HD
ENDBRANCH   2  23
BRANCH   7  25
HETATM   25  O   UNK N   1     224.425 209.929 233.713  0.00  0.00    -0.360 OA
HETATM   26  H   UNK N   1     225.387 209.835 233.755  0.00  0.00     0.217 HD
ENDBRANCH   7  25
BRANCH  10  27
HETATM   27  O   UNK N   1     223.838 214.636 234.151  0.00  0.00    -0.361 OA
HETATM   28  H   UNK N   1     224.759 214.931 234.182  0.00  0.00     0.217 HD
ENDBRANCH  10  27
TORSDOF 7
ENDMDL
MODEL 8
REMARK VINA RESULT:      -5.6      1.165      3.106
REMARK  7 active torsions:
REMARK  status: ('A' for Active; 'I' for Inactive)
REMARK    1  A    between atoms: O_2  and  C_8 
REMARK    2  A    between atoms: O_3  and  C_14 
REMARK    3  A    between atoms: O_4  and  C_19 
REMARK    4  A    between atoms: O_5  and  C_20 
REMARK    5  A    between atoms: O_6  and  C_21 
REMARK    6  A    between atoms: O_7  and  C_22 
REMARK    7  A    between atoms: C_9  and  C_12 
ROOT
HETATM    1  O   UNK N   1     205.094 206.235 220.838  0.00  0.00    -0.338 OA
HETATM    2  C   UNK N   1     207.416 206.204 220.300  0.00  0.00     0.156 C 
HETATM    3  C   UNK N   1     206.225 207.032 220.807  0.00  0.00     0.191 C 
HETATM    4  C   UNK N   1     207.643 205.031 221.273  0.00  0.00     0.079 C 
HETATM    5  C   UNK N   1     206.341 204.348 221.645  0.00  0.00     0.011 A 
HETATM    6  C   UNK N   1     205.111 204.995 221.382  0.00  0.00     0.081 A 
HETATM    7  C   UNK N   1     206.339 203.092 222.276  0.00  0.00     0.077 A 
HETATM    8  C   UNK N   1     203.906 204.372 221.701  0.00  0.00     0.074 A 
HETATM    9  C   UNK N   1     205.120 202.480 222.607  0.00  0.00     0.073 A 
HETATM   10  C   UNK N   1     203.906 203.113 222.315  0.00  0.00     0.071 A 
ENDROOT
BRANCH   3  11
HETATM   11  C   UNK N   1     205.990 208.248 219.955  0.00  0.00    -0.021 A 
HETATM   12  C   UNK N   1     206.643 209.445 220.267  0.00  0.00     0.049 A 
HETATM   13  C   UNK N   1     206.451 210.584 219.477  0.00  0.00     0.102 A 
HETATM   14  C   UNK N   1     205.595 210.532 218.365  0.00  0.00     0.132 A 
HETATM   15  C   UNK N   1     204.936 209.328 218.047  0.00  0.00     0.102 A 
HETATM   16  C   UNK N   1     205.138 208.193 218.840  0.00  0.00     0.049 A 
BRANCH  13  17
HETATM   17  O   UNK N   1     207.090 211.733 219.781  0.00  0.00    -0.358 OA
HETATM   18  H   UNK N   1     206.764 212.325 220.475  0.00  0.00     0.218 HD
ENDBRANCH  13  17
BRANCH  14  19
HETATM   19  O   UNK N   1     205.417 211.638 217.613  0.00  0.00    -0.356 OA
HETATM   20  H   UNK N   1     205.462 211.616 216.647  0.00  0.00     0.218 HD
ENDBRANCH  14  19
BRANCH  15  21
HETATM   21  O   UNK N   1     204.111 209.268 216.980  0.00  0.00    -0.358 OA
HETATM   22  H   UNK N   1     203.549 210.017 216.729  0.00  0.00     0.218 HD
ENDBRANCH  15  21
ENDBRANCH   3  11
BRANCH   2  23
HETATM   23  O   UNK N   1     207.136 205.693 219.021  0.00  0.00    -0.392 OA
HETATM   24  H   UNK N   1     208.008 205.520 218.580  0.00  0.00     0.210 HD
ENDBRANCH   2  23
BRANCH   7  25
HETATM   25  O   UNK N   1     207.508 202.477 222.555  0.00  0.00    -0.360 OA
HETATM   26  H   UNK N   1     207.669 201.555 222.309  0.00  0.00     0.217 HD
ENDBRANCH   7  25
BRANCH  10  27
HETATM   27  O   UNK N   1     202.744 202.511 222.638  0.00  0.00    -0.361 OA
HETATM   28  H   UNK N   1     202.110 202.238 221.961  0.00  0.00     0.217 HD
ENDBRANCH  10  27
TORSDOF 7
ENDMDL
MODEL 9
REMARK VINA RESULT:      -5.4      1.180      2.603
REMARK  7 active torsions:
REMARK  status: ('A' for Active; 'I' for Inactive)
REMARK    1  A    between atoms: O_2  and  C_8 
REMARK    2  A    between atoms: O_3  and  C_14 
REMARK    3  A    between atoms: O_4  and  C_19 
REMARK    4  A    between atoms: O_5  and  C_20 
REMARK    5  A    between atoms: O_6  and  C_21 
REMARK    6  A    between atoms: O_7  and  C_22 
REMARK    7  A    between atoms: C_9  and  C_12 
ROOT
HETATM    1  O   UNK N   1     204.907 206.377 220.866  0.00  0.00    -0.338 OA
HETATM    2  C   UNK N   1     207.211 206.271 220.263  0.00  0.00     0.156 C 
HETATM    3  C   UNK N   1     206.068 207.130 220.827  0.00  0.00     0.191 C 
HETATM    4  C   UNK N   1     207.416 205.061 221.194  0.00  0.00     0.079 C 
HETATM    5  C   UNK N   1     206.098 204.419 221.583  0.00  0.00     0.011 A 
HETATM    6  C   UNK N   1     204.889 205.122 221.373  0.00  0.00     0.081 A 
HETATM    7  C   UNK N   1     206.063 203.146 222.176  0.00  0.00     0.077 A 
HETATM    8  C   UNK N   1     203.669 204.536 221.707  0.00  0.00     0.074 A 
HETATM    9  C   UNK N   1     204.830 202.572 222.523  0.00  0.00     0.073 A 
HETATM   10  C   UNK N   1     203.634 203.260 222.283  0.00  0.00     0.071 A 
ENDROOT
BRANCH   3  11
HETATM   11  C   UNK N   1     205.859 208.379 220.018  0.00  0.00    -0.021 A 
HETATM   12  C   UNK N   1     204.868 208.404 219.031  0.00  0.00     0.049 A 
HETATM   13  C   UNK N   1     204.646 209.561 218.277  0.00  0.00     0.102 A 
HETATM   14  C   UNK N   1     205.423 210.708 218.506  0.00  0.00     0.132 A 
HETATM   15  C   UNK N   1     206.423 210.688 219.498  0.00  0.00     0.102 A 
HETATM   16  C   UNK N   1     206.634 209.527 220.250  0.00  0.00     0.049 A 
BRANCH  13  17
HETATM   17  O   UNK N   1     203.683 209.578 217.333  0.00  0.00    -0.358 OA
HETATM   18  H   UNK N   1     202.950 208.945 217.346  0.00  0.00     0.218 HD
ENDBRANCH  13  17
BRANCH  14  19
HETATM   19  O   UNK N   1     205.200 211.817 217.770  0.00  0.00    -0.356 OA
HETATM   20  H   UNK N   1     205.670 211.989 216.942  0.00  0.00     0.218 HD
ENDBRANCH  14  19
BRANCH  15  21
HETATM   21  O   UNK N   1     207.175 211.786 219.725  0.00  0.00    -0.358 OA
HETATM   22  H   UNK N   1     207.087 212.303 220.539  0.00  0.00     0.218 HD
ENDBRANCH  15  21
ENDBRANCH   3  11
BRANCH   2  23
HETATM   23  O   UNK N   1     206.876 205.810 218.978  0.00  0.00    -0.392 OA
HETATM   24  H   UNK N   1     206.868 204.818 219.019  0.00  0.00     0.210 HD
ENDBRANCH   2  23
BRANCH   7  25
HETATM   25  O   UNK N   1     207.213 202.477 222.404  0.00  0.00    -0.360 OA
HETATM   26  H   UNK N   1     207.279 201.520 222.277  0.00  0.00     0.217 HD
ENDBRANCH   7  25
BRANCH  10  27
HETATM   27  O   UNK N   1     202.458 202.695 222.621  0.00  0.00    -0.361 OA
HETATM   28  H   UNK N   1     202.119 201.917 222.157  0.00  0.00     0.217 HD
ENDBRANCH  10  27
TORSDOF 7
ENDMDL
